Transcript Start Time:  19:58:55, 19 Oct 2024 E. Australia Standard Time 
Current Directory: "D:\EGH423 CFD ASSIGNMENT\Part 2\EGH423_ASSIGNMENT_PART2\EGH423_ASSIGNMENT_PART2_2023"

Build Time: Nov 22 2023 10:34:35 EST 
Executable Path: C:/PROGRA~1/ANSYSI~1/v241/fluent/ntbin/win64/fluent.exe

-------------------------------------------------------------------------------
ID    Hostname        Core  O.S.         PID    Vendor                         
-------------------------------------------------------------------------------
n0*   LAB-KGR500-050  1/8  Windows-x64  12248  Intel(R) Core(TM) i7-9700      
host  LAB-KGR500-050       Windows-x64  15392  Intel(R) Core(TM) i7-9700      

MPI Option Selected: intel
Selected system interconnect: default
-------------------------------------------------------------------------------

Cortex Process ID: 10148 
License Server Path: 1055@ansys-lics.qut.edu.au 
Fast-loading "C:\PROGRA~1\ANSYSI~1\v241\fluent\fluent24.1.0\\addons\afd\lib\hdfio.bin"
Done.
Multicore processors detected. Processor affinity set!
Reading setting file in cache: "D:\EGH423 CFD ASSIGNMENT\Part 2\EGH423_ASSIGNMENT_PART2\EGH423_ASSIGNMENT_PART2_2023\EGH423_ASSIGNMENT_PART2_2023_files\dp0\FFF-5\Fluent\FFF-5.set"

Reading from LAB-KGR500-050:"D:\EGH423 CFD ASSIGNMENT\Part 2\EGH423_ASSIGNMENT_PART2\EGH423_ASSIGNMENT_PART2_2023\EGH423_ASSIGNMENT_PART2_2023_files\dp0\FFF-5\Fluent\FFF-5-Setup-Output.cas.h5" in NODE0 mode ...
  Reading mesh ...
       75678 cells,     1 cell zone  ...
          75678 mixed cells,  zone id: 2
      152638 faces,     5 face zones ...
         149842 2D interior faces,  zone id: 1
            251 2D velocity-inlet faces,  zone id: 5
            160 2D pressure-outlet faces,  zone id: 6
            360 2D wall faces,  zone id: 7
           2025 2D wall faces,  zone id: 8
       76960 nodes,     1 node zone  ...
  Done.



Building...
     mesh
     materials,
     interface,
     domains,
	mixture
     zones,
	wall-part-surface_body
	walls
	outlet
	inlet
	interior-part-surface_body
	part-surface_bodySetting part-surface_body (mixture) ... Done.
 Setting zone id of part-surface_body to 2.
 Setting zone id of interior-part-surface_body to 1.
 Setting zone id of inlet to 5.
 Setting zone id of outlet to 6.
 Setting zone id of walls to 7.
 Setting zone id of wall-part-surface_body to 8.
Done.
Setting part-surface_body (mixture) ... Done.
Setting interior-part-surface_body (mixture) ... Done.
Setting inlet (mixture) ... Done.
Setting outlet (mixture) ... Done.
Setting walls (mixture) ... Done.
Setting wall-part-surface_body (mixture) ... Done.

     parallel,
Done.

Preparing mesh for display...
Done.

Setting Post Processing and Surfaces information ...	 Done.

Reading from LAB-KGR500-050:"D:\EGH423 CFD ASSIGNMENT\Part 2\EGH423_ASSIGNMENT_PART2\EGH423_ASSIGNMENT_PART2_2023\EGH423_ASSIGNMENT_PART2_2023_files\dp0\FFF-5\Fluent\FFF-5-1-02000.dat.h5" in NODE0 mode ...


  Reading results.
Parallel variables...
Done.

  iter  continuity  x-velocity  y-velocity           k       omega     lift-co  drag-force     drag-co     time/iter
  2000  4.8168e-07  1.8137e-11  1.1332e-11  1.8589e-06  1.5594e-08 -1.1348e-03  4.3502e+01  9.2462e-03  0:00:00 2000
  2001  3.3689e-07  1.5454e-11  1.0822e-11  1.8589e-06  1.5611e-08 -1.1348e-03  4.3502e+01  9.2462e-03  0:33:19 1999
  2002  3.3506e-07  1.2648e-11  1.1011e-11  1.8586e-06  1.5600e-08 -1.1348e-03  4.3502e+01  9.2462e-03  0:26:38 1998
  2003  6.4781e-07  2.1613e-11  1.1725e-11  1.8590e-06  1.5589e-08 -1.1348e-03  4.3502e+01  9.2462e-03  0:27:57 1997
  2004  4.6907e-07  1.7130e-11  1.1165e-11  1.8590e-06  1.5594e-08 -1.1348e-03  4.3502e+01  9.2462e-03  0:29:01 1996
  2005  4.8538e-07  1.8654e-11  1.1573e-11  1.8591e-06  1.5593e-08 -1.1348e-03  4.3502e+01  9.2462e-03  0:23:12 1995
  2006  5.1284e-07  1.8090e-11  1.1193e-11  1.8590e-06  1.5594e-08 -1.1348e-03  4.3502e+01  9.2462e-03  0:25:12 1994
  2007  4.6385e-07  1.8221e-11  1.1457e-11  1.8591e-06  1.5592e-08 -1.1348e-03  4.3502e+01  9.2462e-03  0:26:47 1993
  2008  5.0916e-07  1.8143e-11  1.1315e-11  1.8590e-06  1.5595e-08 -1.1348e-03  4.3502e+01  9.2462e-03  0:21:25 1992
  2009  4.7339e-07  1.8179e-11  1.1350e-11  1.8591e-06  1.5591e-08 -1.1348e-03  4.3502e+01  9.2462e-03  0:23:46 1991
  2010  4.9907e-07  1.8138e-11  1.1387e-11  1.8590e-06  1.5595e-08 -1.1348e-03  4.3502e+01  9.2462e-03  0:25:38 1990

  iter  continuity  x-velocity  y-velocity           k       omega     lift-co  drag-force     drag-co     time/iter
  2011  4.8037e-07  1.8164e-11  1.1287e-11  1.8591e-06  1.5592e-08 -1.1348e-03  4.3502e+01  9.2462e-03  0:20:30 1989
  2012  4.9041e-07  1.8149e-11  1.1407e-11  1.8590e-06  1.5595e-08 -1.1348e-03  4.3502e+01  9.2462e-03  0:23:01 1988
  2013  4.8194e-07  1.8145e-11  1.1270e-11  1.8591e-06  1.5592e-08 -1.1348e-03  4.3502e+01  9.2462e-03  0:18:24 1987
  2014  4.8519e-07  1.8162e-11  1.1398e-11  1.8590e-06  1.5594e-08 -1.1348e-03  4.3502e+01  9.2462e-03  0:21:20 1986
  2015  4.8142e-07  1.8130e-11  1.1279e-11  1.8591e-06  1.5592e-08 -1.1348e-03  4.3502e+01  9.2462e-03  0:23:41 1985
  2016  4.8371e-07  1.8167e-11  1.1384e-11  1.8590e-06  1.5594e-08 -1.1348e-03  4.3502e+01  9.2462e-03  0:18:56 1984
  2017  4.8086e-07  1.8123e-11  1.1295e-11  1.8591e-06  1.5593e-08 -1.1348e-03  4.3502e+01  9.2462e-03  0:21:45 1983
  2018  4.8316e-07  1.8167e-11  1.1369e-11  1.8590e-06  1.5594e-08 -1.1348e-03  4.3502e+01  9.2462e-03  0:24:00 1982
  2019  4.8091e-07  1.8121e-11  1.1307e-11  1.8591e-06  1.5593e-08 -1.1348e-03  4.3502e+01  9.2462e-03  0:19:11 1981
  2020  4.8271e-07  1.8161e-11  1.1358e-11  1.8590e-06  1.5594e-08 -1.1348e-03  4.3502e+01  9.2462e-03  0:21:57 1980
  2021  4.8128e-07  1.8125e-11  1.1315e-11  1.8591e-06  1.5593e-08 -1.1348e-03  4.3502e+01  9.2462e-03  0:24:08 1979

  iter  continuity  x-velocity  y-velocity           k       omega     lift-co  drag-force     drag-co     time/iter
  2022  4.8227e-07  1.8154e-11  1.1351e-11  1.8590e-06  1.5593e-08 -1.1348e-03  4.3502e+01  9.2462e-03  0:19:18 1978
  2023  4.8163e-07  1.8131e-11  1.1319e-11  1.8591e-06  1.5593e-08 -1.1348e-03  4.3502e+01  9.2462e-03  0:22:01 1977
  2024  4.8191e-07  1.8146e-11  1.1347e-11  1.8589e-06  1.5593e-08 -1.1348e-03  4.3502e+01  9.2462e-03  0:17:37 1976
  2025  4.8189e-07  1.8136e-11  1.1321e-11  1.8591e-06  1.5593e-08 -1.1348e-03  4.3502e+01  9.2462e-03  0:20:40 1975
  2026  4.8162e-07  1.8140e-11  1.1345e-11  1.8589e-06  1.5593e-08 -1.1348e-03  4.3502e+01  9.2462e-03  0:23:06 1974
  2027  4.8204e-07  1.8141e-11  1.1322e-11  1.8591e-06  1.5593e-08 -1.1348e-03  4.3502e+01  9.2462e-03  0:18:28 1973
  2028  4.8144e-07  1.8136e-11  1.1343e-11  1.8589e-06  1.5593e-08 -1.1348e-03  4.3502e+01  9.2462e-03  0:21:21 1972
  2029  4.8211e-07  1.8143e-11  1.1323e-11  1.8591e-06  1.5593e-08 -1.1348e-03  4.3502e+01  9.2462e-03  0:23:38 1971
  2030  4.8135e-07  1.8133e-11  1.1342e-11  1.8589e-06  1.5593e-08 -1.1348e-03  4.3502e+01  9.2462e-03  0:18:54 1970
  2031  4.8212e-07  1.8144e-11  1.1324e-11  1.8591e-06  1.5593e-08 -1.1348e-03  4.3502e+01  9.2462e-03  0:21:41 1969
  2032  4.8134e-07  1.8132e-11  1.1341e-11  1.8590e-06  1.5593e-08 -1.1348e-03  4.3502e+01  9.2462e-03  0:17:20 1968

  iter  continuity  x-velocity  y-velocity           k       omega     lift-co  drag-force     drag-co     time/iter
  2033  4.8208e-07  1.8144e-11  1.1325e-11  1.8591e-06  1.5593e-08 -1.1348e-03  4.3502e+01  9.2462e-03  0:20:25 1967
  2034  4.8137e-07  1.8132e-11  1.1340e-11  1.8590e-06  1.5594e-08 -1.1348e-03  4.3502e+01  9.2462e-03  0:22:53 1966
  2035  4.8202e-07  1.8143e-11  1.1326e-11  1.8591e-06  1.5593e-08 -1.1348e-03  4.3502e+01  9.2462e-03  0:18:18 1965
  2036  4.8143e-07  1.8133e-11  1.1339e-11  1.8590e-06  1.5594e-08 -1.1348e-03  4.3502e+01  9.2462e-03  0:21:10 1964
  2037  4.8196e-07  1.8142e-11  1.1326e-11  1.8591e-06  1.5593e-08 -1.1348e-03  4.3502e+01  9.2462e-03  0:23:28 1963
  2038  4.8148e-07  1.8134e-11  1.1338e-11  1.8589e-06  1.5594e-08 -1.1348e-03  4.3502e+01  9.2462e-03  0:18:46 1962
  2039  4.8190e-07  1.8140e-11  1.1327e-11  1.8591e-06  1.5593e-08 -1.1348e-03  4.3502e+01  9.2462e-03  0:21:33 1961
  2040  4.8153e-07  1.8135e-11  1.1337e-11  1.8589e-06  1.5594e-08 -1.1348e-03  4.3502e+01  9.2462e-03  0:23:46 1960
  2041  4.8185e-07  1.8139e-11  1.1328e-11  1.8591e-06  1.5593e-08 -1.1348e-03  4.3502e+01  9.2462e-03  0:19:00 1959
  2042  4.8157e-07  1.8136e-11  1.1337e-11  1.8589e-06  1.5594e-08 -1.1348e-03  4.3502e+01  9.2462e-03  0:21:43 1958
  2043  4.8181e-07  1.8138e-11  1.1329e-11  1.8591e-06  1.5593e-08 -1.1348e-03  4.3502e+01  9.2462e-03  0:17:22 1957

  iter  continuity  x-velocity  y-velocity           k       omega     lift-co  drag-force     drag-co     time/iter
  2044  4.8160e-07  1.8137e-11  1.1336e-11  1.8589e-06  1.5594e-08 -1.1348e-03  4.3502e+01  9.2462e-03  0:20:24 1956
  2045  4.8178e-07  1.8137e-11  1.1329e-11  1.8591e-06  1.5593e-08 -1.1348e-03  4.3502e+01  9.2462e-03  0:22:50 1955
  2046  4.8162e-07  1.8138e-11  1.1335e-11  1.8589e-06  1.5594e-08 -1.1348e-03  4.3502e+01  9.2462e-03  0:18:15 1954
  2047  4.8175e-07  1.8136e-11  1.1330e-11  1.8591e-06  1.5593e-08 -1.1348e-03  4.3502e+01  9.2462e-03  0:21:06 1953
  2048  4.8163e-07  1.8138e-11  1.1335e-11  1.8589e-06  1.5594e-08 -1.1348e-03  4.3502e+01  9.2462e-03  0:23:23 1952
  2049  4.8174e-07  1.8136e-11  1.1330e-11  1.8591e-06  1.5593e-08 -1.1348e-03  4.3502e+01  9.2462e-03  0:18:42 1951
  2050  4.8164e-07  1.8138e-11  1.1334e-11  1.8589e-06  1.5594e-08 -1.1348e-03  4.3502e+01  9.2462e-03  0:21:27 1950
  2051  4.8172e-07  1.8136e-11  1.1331e-11  1.8591e-06  1.5593e-08 -1.1348e-03  4.3502e+01  9.2462e-03  0:23:39 1949
  2052  4.8165e-07  1.8138e-11  1.1334e-11  1.8589e-06  1.5594e-08 -1.1348e-03  4.3502e+01  9.2462e-03  0:18:55 1948
  2053  4.8172e-07  1.8136e-11  1.1331e-11  1.8591e-06  1.5593e-08 -1.1348e-03  4.3502e+01  9.2462e-03  0:21:37 1947
  2054  4.8166e-07  1.8138e-11  1.1334e-11  1.8589e-06  1.5594e-08 -1.1348e-03  4.3502e+01  9.2462e-03  0:17:17 1946

  iter  continuity  x-velocity  y-velocity           k       omega     lift-co  drag-force     drag-co     time/iter
  2055  4.8171e-07  1.8136e-11  1.1331e-11  1.8591e-06  1.5593e-08 -1.1348e-03  4.3502e+01  9.2462e-03  0:20:18 1945
  2056  4.8166e-07  1.8138e-11  1.1334e-11  1.8589e-06  1.5594e-08 -1.1348e-03  4.3502e+01  9.2462e-03  0:22:43 1944
  2057  4.8171e-07  1.8136e-11  1.1331e-11  1.8591e-06  1.5593e-08 -1.1348e-03  4.3502e+01  9.2462e-03  0:18:10 1943
  2058  4.8166e-07  1.8137e-11  1.1333e-11  1.8589e-06  1.5594e-08 -1.1348e-03  4.3502e+01  9.2462e-03  0:21:00 1942
  2059  4.8171e-07  1.8137e-11  1.1331e-11  1.8591e-06  1.5593e-08 -1.1348e-03  4.3502e+01  9.2462e-03  0:23:15 1941
  2060  4.8166e-07  1.8137e-11  1.1333e-11  1.8589e-06  1.5594e-08 -1.1348e-03  4.3502e+01  9.2462e-03  0:18:36 1940
  2061  4.8170e-07  1.8137e-11  1.1331e-11  1.8591e-06  1.5593e-08 -1.1348e-03  4.3502e+01  9.2462e-03  0:21:20 1939
  2062  4.8166e-07  1.8137e-11  1.1333e-11  1.8589e-06  1.5594e-08 -1.1348e-03  4.3502e+01  9.2462e-03  0:17:03 1938
  2063  4.8170e-07  1.8137e-11  1.1332e-11  1.8591e-06  1.5593e-08 -1.1348e-03  4.3502e+01  9.2462e-03  0:20:06 1937
  2064  4.8166e-07  1.8137e-11  1.1333e-11  1.8589e-06  1.5594e-08 -1.1348e-03  4.3502e+01  9.2462e-03  0:22:31 1936
  2065  4.8170e-07  1.8137e-11  1.1332e-11  1.8591e-06  1.5593e-08 -1.1348e-03  4.3502e+01  9.2462e-03  0:18:00 1935

  iter  continuity  x-velocity  y-velocity           k       omega     lift-co  drag-force     drag-co     time/iter
  2066  4.8166e-07  1.8137e-11  1.1333e-11  1.8589e-06  1.5594e-08 -1.1348e-03  4.3502e+01  9.2462e-03  0:20:51 1934
  2067  4.8170e-07  1.8137e-11  1.1332e-11  1.8591e-06  1.5593e-08 -1.1348e-03  4.3502e+01  9.2462e-03  0:23:07 1933
  2068  4.8167e-07  1.8137e-11  1.1333e-11  1.8589e-06  1.5594e-08 -1.1348e-03  4.3502e+01  9.2462e-03  0:18:29 1932
  2069  4.8170e-07  1.8137e-11  1.1332e-11  1.8591e-06  1.5593e-08 -1.1348e-03  4.3502e+01  9.2462e-03  0:21:13 1931
  2070  4.8167e-07  1.8137e-11  1.1333e-11  1.8589e-06  1.5594e-08 -1.1348e-03  4.3502e+01  9.2462e-03  0:23:24 1930
  2071  4.8170e-07  1.8137e-11  1.1332e-11  1.8591e-06  1.5593e-08 -1.1348e-03  4.3502e+01  9.2462e-03  0:18:42 1929
  2072  4.8167e-07  1.8137e-11  1.1333e-11  1.8589e-06  1.5594e-08 -1.1348e-03  4.3502e+01  9.2462e-03  0:21:23 1928
  2073  4.8170e-07  1.8137e-11  1.1332e-11  1.8591e-06  1.5593e-08 -1.1348e-03  4.3502e+01  9.2462e-03  0:23:31 1927
  2074  4.8167e-07  1.8137e-11  1.1333e-11  1.8589e-06  1.5594e-08 -1.1348e-03  4.3502e+01  9.2462e-03  0:25:14 1926
  2075  4.8169e-07  1.8137e-11  1.1332e-11  1.8591e-06  1.5593e-08 -1.1348e-03  4.3502e+01  9.2462e-03  0:20:10 1925
  2076  4.8167e-07  1.8137e-11  1.1333e-11  1.8589e-06  1.5594e-08 -1.1348e-03  4.3502e+01  9.2462e-03  0:22:33 1924

  iter  continuity  x-velocity  y-velocity           k       omega     lift-co  drag-force     drag-co     time/iter
  2077  4.8169e-07  1.8137e-11  1.1332e-11  1.8591e-06  1.5593e-08 -1.1348e-03  4.3502e+01  9.2462e-03  0:18:01 1923
  2078  4.8167e-07  1.8137e-11  1.1333e-11  1.8589e-06  1.5594e-08 -1.1348e-03  4.3502e+01  9.2462e-03  0:20:49 1922
  2079  4.8169e-07  1.8137e-11  1.1332e-11  1.8591e-06  1.5593e-08 -1.1348e-03  4.3502e+01  9.2462e-03  0:23:03 1921
  2080  4.8167e-07  1.8137e-11  1.1333e-11  1.8589e-06  1.5594e-08 -1.1348e-03  4.3502e+01  9.2462e-03  0:18:26 1920
  2081  4.8169e-07  1.8137e-11  1.1332e-11  1.8591e-06  1.5593e-08 -1.1348e-03  4.3502e+01  9.2462e-03  0:21:08 1919
  2082  4.8168e-07  1.8137e-11  1.1332e-11  1.8589e-06  1.5594e-08 -1.1348e-03  4.3502e+01  9.2462e-03  0:23:17 1918
  2083  4.8169e-07  1.8137e-11  1.1332e-11  1.8591e-06  1.5593e-08 -1.1348e-03  4.3502e+01  9.2462e-03  0:18:37 1917
  2084  4.8168e-07  1.8137e-11  1.1332e-11  1.8589e-06  1.5594e-08 -1.1348e-03  4.3502e+01  9.2462e-03  0:21:17 1916
  2085  4.8169e-07  1.8137e-11  1.1332e-11  1.8591e-06  1.5593e-08 -1.1348e-03  4.3502e+01  9.2462e-03  0:17:01 1915
  2086  4.8168e-07  1.8137e-11  1.1332e-11  1.8589e-06  1.5594e-08 -1.1348e-03  4.3502e+01  9.2462e-03  0:19:59 1914
  2087  4.8169e-07  1.8137e-11  1.1332e-11  1.8591e-06  1.5593e-08 -1.1348e-03  4.3502e+01  9.2462e-03  0:22:21 1913

  iter  continuity  x-velocity  y-velocity           k       omega     lift-co  drag-force     drag-co     time/iter
  2088  4.8168e-07  1.8137e-11  1.1332e-11  1.8589e-06  1.5594e-08 -1.1348e-03  4.3502e+01  9.2462e-03  0:17:52 1912
  2089  4.8169e-07  1.8137e-11  1.1332e-11  1.8591e-06  1.5593e-08 -1.1348e-03  4.3502e+01  9.2462e-03  0:20:40 1911
  2090  4.8168e-07  1.8137e-11  1.1332e-11  1.8589e-06  1.5594e-08 -1.1348e-03  4.3502e+01  9.2462e-03  0:22:53 1910
  2091  4.8169e-07  1.8137e-11  1.1332e-11  1.8591e-06  1.5593e-08 -1.1348e-03  4.3502e+01  9.2462e-03  0:18:18 1909
  2092  4.8168e-07  1.8137e-11  1.1332e-11  1.8589e-06  1.5594e-08 -1.1348e-03  4.3502e+01  9.2462e-03  0:21:00 1908
  2093  4.8169e-07  1.8137e-11  1.1332e-11  1.8591e-06  1.5593e-08 -1.1348e-03  4.3502e+01  9.2462e-03  0:23:09 1907
  2094  4.8168e-07  1.8137e-11  1.1332e-11  1.8589e-06  1.5594e-08 -1.1348e-03  4.3502e+01  9.2462e-03  0:18:30 1906
  2095  4.8169e-07  1.8137e-11  1.1332e-11  1.8591e-06  1.5593e-08 -1.1348e-03  4.3502e+01  9.2462e-03  0:21:09 1905
  2096  4.8168e-07  1.8137e-11  1.1332e-11  1.8589e-06  1.5594e-08 -1.1348e-03  4.3502e+01  9.2462e-03  0:16:54 1904
  2097  4.8168e-07  1.8137e-11  1.1332e-11  1.8591e-06  1.5593e-08 -1.1348e-03  4.3502e+01  9.2462e-03  0:19:52 1903
  2098  4.8168e-07  1.8137e-11  1.1332e-11  1.8589e-06  1.5594e-08 -1.1348e-03  4.3502e+01  9.2462e-03  0:22:13 1902

  iter  continuity  x-velocity  y-velocity           k       omega     lift-co  drag-force     drag-co     time/iter
  2099  4.8168e-07  1.8137e-11  1.1332e-11  1.8591e-06  1.5593e-08 -1.1348e-03  4.3502e+01  9.2462e-03  0:17:46 1901
  2100  4.8168e-07  1.8137e-11  1.1332e-11  1.8589e-06  1.5594e-08 -1.1348e-03  4.3502e+01  9.2462e-03  0:20:32 1900
  2101  4.8168e-07  1.8137e-11  1.1332e-11  1.8591e-06  1.5593e-08 -1.1348e-03  4.3502e+01  9.2462e-03  0:22:45 1899
  2102  4.8168e-07  1.8137e-11  1.1332e-11  1.8589e-06  1.5594e-08 -1.1348e-03  4.3502e+01  9.2462e-03  0:18:12 1898
  2103  4.8168e-07  1.8137e-11  1.1332e-11  1.8591e-06  1.5593e-08 -1.1348e-03  4.3502e+01  9.2462e-03  0:20:52 1897
  2104  4.8168e-07  1.8137e-11  1.1332e-11  1.8589e-06  1.5594e-08 -1.1348e-03  4.3502e+01  9.2462e-03  0:16:41 1896
  2105  4.8168e-07  1.8137e-11  1.1332e-11  1.8591e-06  1.5593e-08 -1.1348e-03  4.3502e+01  9.2462e-03  0:19:40 1895
  2106  4.8168e-07  1.8137e-11  1.1332e-11  1.8589e-06  1.5594e-08 -1.1348e-03  4.3502e+01  9.2462e-03  0:22:02 1894
  2107  4.8168e-07  1.8137e-11  1.1332e-11  1.8591e-06  1.5593e-08 -1.1348e-03  4.3502e+01  9.2462e-03  0:17:37 1893
  2108  4.8168e-07  1.8137e-11  1.1332e-11  1.8589e-06  1.5594e-08 -1.1348e-03  4.3502e+01  9.2462e-03  0:20:24 1892
  2109  4.8168e-07  1.8137e-11  1.1332e-11  1.8591e-06  1.5593e-08 -1.1348e-03  4.3502e+01  9.2462e-03  0:22:37 1891

  iter  continuity  x-velocity  y-velocity           k       omega     lift-co  drag-force     drag-co     time/iter
  2110  4.8168e-07  1.8137e-11  1.1332e-11  1.8589e-06  1.5594e-08 -1.1348e-03  4.3502e+01  9.2462e-03  0:24:23 1890
  2111  4.8168e-07  1.8137e-11  1.1332e-11  1.8591e-06  1.5593e-08 -1.1348e-03  4.3502e+01  9.2462e-03  0:19:30 1889
  2112  4.8168e-07  1.8137e-11  1.1332e-11  1.8589e-06  1.5594e-08 -1.1348e-03  4.3502e+01  9.2462e-03  0:21:53 1888
  2113  4.8168e-07  1.8137e-11  1.1332e-11  1.8591e-06  1.5593e-08 -1.1348e-03  4.3502e+01  9.2462e-03  0:17:30 1887
  2114  4.8168e-07  1.8137e-11  1.1332e-11  1.8589e-06  1.5594e-08 -1.1348e-03  4.3502e+01  9.2462e-03  0:20:16 1886
  2115  4.8168e-07  1.8137e-11  1.1332e-11  1.8591e-06  1.5593e-08 -1.1348e-03  4.3502e+01  9.2462e-03  0:22:30 1885
  2116  4.8168e-07  1.8137e-11  1.1332e-11  1.8589e-06  1.5594e-08 -1.1348e-03  4.3502e+01  9.2462e-03  0:17:59 1884
  2117  4.8168e-07  1.8137e-11  1.1332e-11  1.8591e-06  1.5593e-08 -1.1348e-03  4.3502e+01  9.2462e-03  0:20:39 1883
  2118  4.8168e-07  1.8137e-11  1.1332e-11  1.8589e-06  1.5594e-08 -1.1348e-03  4.3502e+01  9.2462e-03  0:22:47 1882
  2119  4.8168e-07  1.8137e-11  1.1332e-11  1.8591e-06  1.5593e-08 -1.1348e-03  4.3502e+01  9.2462e-03  0:18:13 1881
  2120  4.8168e-07  1.8137e-11  1.1332e-11  1.8589e-06  1.5594e-08 -1.1348e-03  4.3502e+01  9.2462e-03  0:20:50 1880

  iter  continuity  x-velocity  y-velocity           k       omega     lift-co  drag-force     drag-co     time/iter
  2121  4.8168e-07  1.8137e-11  1.1332e-11  1.8591e-06  1.5593e-08 -1.1348e-03  4.3502e+01  9.2462e-03  0:22:55 1879
  2122  4.8168e-07  1.8137e-11  1.1332e-11  1.8589e-06  1.5594e-08 -1.1348e-03  4.3502e+01  9.2462e-03  0:18:20 1878
  2123  4.8168e-07  1.8137e-11  1.1332e-11  1.8591e-06  1.5593e-08 -1.1348e-03  4.3502e+01  9.2462e-03  0:20:55 1877
  2124  4.8168e-07  1.8137e-11  1.1332e-11  1.8589e-06  1.5594e-08 -1.1348e-03  4.3502e+01  9.2462e-03  0:16:43 1876
  2125  4.8168e-07  1.8137e-11  1.1332e-11  1.8591e-06  1.5593e-08 -1.1348e-03  4.3502e+01  9.2462e-03  0:19:37 1875
  2126  4.8168e-07  1.8137e-11  1.1332e-11  1.8589e-06  1.5594e-08 -1.1348e-03  4.3502e+01  9.2462e-03  0:21:56 1874
  2127  4.8168e-07  1.8137e-11  1.1332e-11  1.8591e-06  1.5593e-08 -1.1348e-03  4.3502e+01  9.2462e-03  0:17:32 1873
  2128  4.8168e-07  1.8137e-11  1.1332e-11  1.8589e-06  1.5594e-08 -1.1348e-03  4.3502e+01  9.2462e-03  0:20:16 1872
  2129  4.8168e-07  1.8137e-11  1.1332e-11  1.8591e-06  1.5593e-08 -1.1348e-03  4.3502e+01  9.2462e-03  0:22:26 1871
  2130  4.8168e-07  1.8137e-11  1.1332e-11  1.8589e-06  1.5594e-08 -1.1348e-03  4.3502e+01  9.2462e-03  0:17:56 1870
  2131  4.8168e-07  1.8137e-11  1.1332e-11  1.8591e-06  1.5593e-08 -1.1348e-03  4.3502e+01  9.2462e-03  0:20:35 1869

  iter  continuity  x-velocity  y-velocity           k       omega     lift-co  drag-force     drag-co     time/iter
  2132  4.8168e-07  1.8137e-11  1.1332e-11  1.8589e-06  1.5594e-08 -1.1348e-03  4.3502e+01  9.2462e-03  0:16:27 1868
  2133  4.8168e-07  1.8137e-11  1.1332e-11  1.8591e-06  1.5593e-08 -1.1348e-03  4.3502e+01  9.2462e-03  0:19:23 1867
  2134  4.8168e-07  1.8137e-11  1.1332e-11  1.8589e-06  1.5594e-08 -1.1348e-03  4.3502e+01  9.2462e-03  0:21:43 1866
  2135  4.8168e-07  1.8137e-11  1.1332e-11  1.8591e-06  1.5593e-08 -1.1348e-03  4.3502e+01  9.2462e-03  0:17:22 1865
  2136  4.8168e-07  1.8137e-11  1.1332e-11  1.8589e-06  1.5594e-08 -1.1348e-03  4.3502e+01  9.2462e-03  0:20:06 1864
  2137  4.8168e-07  1.8137e-11  1.1332e-11  1.8591e-06  1.5593e-08 -1.1348e-03  4.3502e+01  9.2462e-03  0:22:17 1863
  2138  4.8168e-07  1.8137e-11  1.1332e-11  1.8589e-06  1.5594e-08 -1.1348e-03  4.3502e+01  9.2462e-03  0:17:49 1862
  2139  4.8168e-07  1.8137e-11  1.1332e-11  1.8591e-06  1.5593e-08 -1.1348e-03  4.3502e+01  9.2462e-03  0:20:27 1861
  2140  4.8168e-07  1.8137e-11  1.1332e-11  1.8589e-06  1.5594e-08 -1.1348e-03  4.3502e+01  9.2462e-03  0:22:33 1860
  2141  4.8168e-07  1.8137e-11  1.1332e-11  1.8591e-06  1.5593e-08 -1.1348e-03  4.3502e+01  9.2462e-03  0:18:02 1859
  2142  4.8168e-07  1.8137e-11  1.1332e-11  1.8589e-06  1.5594e-08 -1.1348e-03  4.3502e+01  9.2462e-03  0:20:37 1858

  iter  continuity  x-velocity  y-velocity           k       omega     lift-co  drag-force     drag-co     time/iter
  2143  4.8168e-07  1.8137e-11  1.1332e-11  1.8591e-06  1.5593e-08 -1.1348e-03  4.3502e+01  9.2462e-03  0:16:29 1857
  2144  4.8168e-07  1.8137e-11  1.1332e-11  1.8589e-06  1.5594e-08 -1.1348e-03  4.3502e+01  9.2462e-03  0:19:22 1856
  2145  4.8168e-07  1.8137e-11  1.1332e-11  1.8591e-06  1.5593e-08 -1.1348e-03  4.3502e+01  9.2462e-03  0:21:40 1855
  2146  4.8168e-07  1.8137e-11  1.1332e-11  1.8589e-06  1.5594e-08 -1.1348e-03  4.3502e+01  9.2462e-03  0:17:19 1854
  2147  4.8168e-07  1.8137e-11  1.1332e-11  1.8591e-06  1.5593e-08 -1.1348e-03  4.3502e+01  9.2462e-03  0:20:02 1853
  2148  4.8168e-07  1.8137e-11  1.1332e-11  1.8589e-06  1.5594e-08 -1.1348e-03  4.3502e+01  9.2462e-03  0:22:11 1852
  2149  4.8168e-07  1.8137e-11  1.1332e-11  1.8591e-06  1.5593e-08 -1.1348e-03  4.3502e+01  9.2462e-03  0:23:55 1851
  2150  4.8168e-07  1.8137e-11  1.1332e-11  1.8589e-06  1.5594e-08 -1.1348e-03  4.3502e+01  9.2462e-03  0:19:07 1850
  2151  4.8168e-07  1.8137e-11  1.1332e-11  1.8591e-06  1.5593e-08 -1.1348e-03  4.3502e+01  9.2462e-03  0:21:27 1849
  2152  4.8168e-07  1.8137e-11  1.1332e-11  1.8589e-06  1.5594e-08 -1.1348e-03  4.3502e+01  9.2462e-03  0:23:19 1848
  2153  4.8168e-07  1.8137e-11  1.1332e-11  1.8591e-06  1.5593e-08 -1.1348e-03  4.3502e+01  9.2462e-03  0:18:38 1847

  iter  continuity  x-velocity  y-velocity           k       omega     lift-co  drag-force     drag-co     time/iter
  2154  4.8168e-07  1.8137e-11  1.1332e-11  1.8589e-06  1.5594e-08 -1.1348e-03  4.3502e+01  9.2462e-03  0:21:03 1846
  2155  4.8168e-07  1.8137e-11  1.1332e-11  1.8591e-06  1.5593e-08 -1.1348e-03  4.3502e+01  9.2462e-03  0:16:50 1845
  2156  4.8168e-07  1.8137e-11  1.1332e-11  1.8589e-06  1.5594e-08 -1.1348e-03  4.3502e+01  9.2462e-03  0:19:36 1844
  2157  4.8168e-07  1.8137e-11  1.1332e-11  1.8591e-06  1.5593e-08 -1.1348e-03  4.3502e+01  9.2462e-03  0:21:49 1843
  2158  4.8168e-07  1.8137e-11  1.1332e-11  1.8589e-06  1.5594e-08 -1.1348e-03  4.3502e+01  9.2462e-03  0:17:27 1842
  2159  4.8168e-07  1.8137e-11  1.1332e-11  1.8591e-06  1.5593e-08 -1.1348e-03  4.3502e+01  9.2462e-03  0:20:05 1841
  2160  4.8168e-07  1.8137e-11  1.1332e-11  1.8589e-06  1.5594e-08 -1.1348e-03  4.3502e+01  9.2462e-03  0:22:12 1840
  2161  4.8168e-07  1.8137e-11  1.1332e-11  1.8591e-06  1.5593e-08 -1.1348e-03  4.3502e+01  9.2462e-03  0:17:45 1839
  2162  4.8168e-07  1.8137e-11  1.1332e-11  1.8589e-06  1.5594e-08 -1.1348e-03  4.3502e+01  9.2462e-03  0:20:19 1838
  2163  4.8168e-07  1.8137e-11  1.1332e-11  1.8591e-06  1.5593e-08 -1.1348e-03  4.3502e+01  9.2462e-03  0:16:15 1837
  2164  4.8168e-07  1.8137e-11  1.1332e-11  1.8589e-06  1.5594e-08 -1.1348e-03  4.3502e+01  9.2462e-03  0:19:06 1836

  iter  continuity  x-velocity  y-velocity           k       omega     lift-co  drag-force     drag-co     time/iter
  2165  4.8168e-07  1.8137e-11  1.1332e-11  1.8591e-06  1.5593e-08 -1.1348e-03  4.3502e+01  9.2462e-03  0:21:24 1835
  2166  4.8168e-07  1.8137e-11  1.1332e-11  1.8589e-06  1.5594e-08 -1.1348e-03  4.3502e+01  9.2462e-03  0:17:06 1834
  2167  4.8168e-07  1.8137e-11  1.1332e-11  1.8591e-06  1.5593e-08 -1.1348e-03  4.3502e+01  9.2462e-03  0:19:47 1833
  2168  4.8168e-07  1.8137e-11  1.1332e-11  1.8589e-06  1.5594e-08 -1.1348e-03  4.3502e+01  9.2462e-03  0:21:56 1832
  2169  4.8168e-07  1.8137e-11  1.1332e-11  1.8591e-06  1.5593e-08 -1.1348e-03  4.3502e+01  9.2462e-03  0:17:32 1831
  2170  4.8168e-07  1.8137e-11  1.1332e-11  1.8589e-06  1.5594e-08 -1.1348e-03  4.3502e+01  9.2462e-03  0:20:07 1830
  2171  4.8168e-07  1.8137e-11  1.1332e-11  1.8591e-06  1.5593e-08 -1.1348e-03  4.3502e+01  9.2462e-03  0:22:11 1829
  2172  4.8168e-07  1.8137e-11  1.1332e-11  1.8589e-06  1.5594e-08 -1.1348e-03  4.3502e+01  9.2462e-03  0:17:44 1828
  2173  4.8168e-07  1.8137e-11  1.1332e-11  1.8591e-06  1.5593e-08 -1.1348e-03  4.3502e+01  9.2462e-03  0:20:16 1827
  2174  4.8168e-07  1.8137e-11  1.1332e-11  1.8589e-06  1.5594e-08 -1.1348e-03  4.3502e+01  9.2462e-03  0:16:12 1826
  2175  4.8168e-07  1.8137e-11  1.1332e-11  1.8591e-06  1.5593e-08 -1.1348e-03  4.3502e+01  9.2462e-03  0:19:03 1825

  iter  continuity  x-velocity  y-velocity           k       omega     lift-co  drag-force     drag-co     time/iter
  2176  4.8168e-07  1.8137e-11  1.1332e-11  1.8589e-06  1.5594e-08 -1.1348e-03  4.3502e+01  9.2462e-03  0:21:18 1824
  2177  4.8168e-07  1.8137e-11  1.1332e-11  1.8591e-06  1.5593e-08 -1.1348e-03  4.3502e+01  9.2462e-03  0:17:02 1823
  2178  4.8168e-07  1.8137e-11  1.1332e-11  1.8589e-06  1.5594e-08 -1.1348e-03  4.3502e+01  9.2462e-03  0:19:42 1822
  2179  4.8168e-07  1.8137e-11  1.1332e-11  1.8591e-06  1.5593e-08 -1.1348e-03  4.3502e+01  9.2462e-03  0:21:49 1821
  2180  4.8168e-07  1.8137e-11  1.1332e-11  1.8589e-06  1.5594e-08 -1.1348e-03  4.3502e+01  9.2462e-03  0:17:27 1820
  2181  4.8168e-07  1.8137e-11  1.1332e-11  1.8591e-06  1.5593e-08 -1.1348e-03  4.3502e+01  9.2462e-03  0:20:01 1819
  2182  4.8168e-07  1.8137e-11  1.1332e-11  1.8589e-06  1.5594e-08 -1.1348e-03  4.3502e+01  9.2462e-03  0:22:04 1818
  2183  4.8168e-07  1.8137e-11  1.1332e-11  1.8591e-06  1.5593e-08 -1.1348e-03  4.3502e+01  9.2462e-03  0:17:38 1817
  2184  4.8168e-07  1.8137e-11  1.1332e-11  1.8589e-06  1.5594e-08 -1.1348e-03  4.3502e+01  9.2462e-03  0:20:09 1816
  2185  4.8168e-07  1.8137e-11  1.1332e-11  1.8591e-06  1.5593e-08 -1.1348e-03  4.3502e+01  9.2462e-03  0:16:07 1815
  2186  4.8168e-07  1.8137e-11  1.1332e-11  1.8589e-06  1.5594e-08 -1.1348e-03  4.3502e+01  9.2462e-03  0:18:56 1814

  iter  continuity  x-velocity  y-velocity           k       omega     lift-co  drag-force     drag-co     time/iter
  2187  4.8168e-07  1.8137e-11  1.1332e-11  1.8591e-06  1.5593e-08 -1.1348e-03  4.3502e+01  9.2462e-03  0:21:11 1813
  2188  4.8168e-07  1.8137e-11  1.1332e-11  1.8589e-06  1.5594e-08 -1.1348e-03  4.3502e+01  9.2462e-03  0:16:56 1812
  2189  4.8168e-07  1.8137e-11  1.1332e-11  1.8591e-06  1.5593e-08 -1.1348e-03  4.3502e+01  9.2462e-03  0:19:35 1811
  2190  4.8168e-07  1.8137e-11  1.1332e-11  1.8589e-06  1.5594e-08 -1.1348e-03  4.3502e+01  9.2462e-03  0:21:41 1810
  2191  4.8168e-07  1.8137e-11  1.1332e-11  1.8591e-06  1.5593e-08 -1.1348e-03  4.3502e+01  9.2462e-03  0:17:20 1809
  2192  4.8168e-07  1.8137e-11  1.1332e-11  1.8589e-06  1.5594e-08 -1.1348e-03  4.3502e+01  9.2462e-03  0:19:53 1808
  2193  4.8168e-07  1.8137e-11  1.1332e-11  1.8591e-06  1.5593e-08 -1.1348e-03  4.3502e+01  9.2462e-03  0:21:56 1807
  2194  4.8168e-07  1.8137e-11  1.1332e-11  1.8589e-06  1.5594e-08 -1.1348e-03  4.3502e+01  9.2462e-03  0:17:32 1806
  2195  4.8168e-07  1.8137e-11  1.1332e-11  1.8591e-06  1.5593e-08 -1.1348e-03  4.3502e+01  9.2462e-03  0:20:02 1805
  2196  4.8168e-07  1.8137e-11  1.1332e-11  1.8589e-06  1.5594e-08 -1.1348e-03  4.3502e+01  9.2462e-03  0:16:01 1804
  2197  4.8168e-07  1.8137e-11  1.1332e-11  1.8591e-06  1.5593e-08 -1.1348e-03  4.3502e+01  9.2462e-03  0:18:49 1803

  iter  continuity  x-velocity  y-velocity           k       omega     lift-co  drag-force     drag-co     time/iter
  2198  4.8168e-07  1.8137e-11  1.1332e-11  1.8589e-06  1.5594e-08 -1.1348e-03  4.3502e+01  9.2462e-03  0:21:03 1802
  2199  4.8168e-07  1.8137e-11  1.1332e-11  1.8591e-06  1.5593e-08 -1.1348e-03  4.3502e+01  9.2462e-03  0:16:50 1801
  2200  4.8168e-07  1.8137e-11  1.1332e-11  1.8589e-06  1.5594e-08 -1.1348e-03  4.3502e+01  9.2462e-03  0:19:28 1800
  2201  4.8168e-07  1.8137e-11  1.1332e-11  1.8591e-06  1.5593e-08 -1.1348e-03  4.3502e+01  9.2462e-03  0:21:33 1799
  2202  4.8168e-07  1.8137e-11  1.1332e-11  1.8589e-06  1.5594e-08 -1.1348e-03  4.3502e+01  9.2462e-03  0:17:14 1798
  2203  4.8168e-07  1.8137e-11  1.1332e-11  1.8591e-06  1.5593e-08 -1.1348e-03  4.3502e+01  9.2462e-03  0:19:46 1797
  2204  4.8168e-07  1.8137e-11  1.1332e-11  1.8589e-06  1.5594e-08 -1.1348e-03  4.3502e+01  9.2462e-03  0:15:48 1796
  2205  4.8168e-07  1.8137e-11  1.1332e-11  1.8591e-06  1.5593e-08 -1.1348e-03  4.3502e+01  9.2462e-03  0:18:37 1795
  2206  4.8168e-07  1.8137e-11  1.1332e-11  1.8589e-06  1.5594e-08 -1.1348e-03  4.3502e+01  9.2462e-03  0:20:52 1794
  2207  4.8168e-07  1.8137e-11  1.1332e-11  1.8591e-06  1.5593e-08 -1.1348e-03  4.3502e+01  9.2462e-03  0:16:41 1793
  2208  4.8168e-07  1.8137e-11  1.1332e-11  1.8589e-06  1.5594e-08 -1.1348e-03  4.3502e+01  9.2462e-03  0:19:19 1792

  iter  continuity  x-velocity  y-velocity           k       omega     lift-co  drag-force     drag-co     time/iter
  2209  4.8168e-07  1.8137e-11  1.1332e-11  1.8591e-06  1.5593e-08 -1.1348e-03  4.3502e+01  9.2462e-03  0:21:25 1791
  2210  4.8168e-07  1.8137e-11  1.1332e-11  1.8589e-06  1.5594e-08 -1.1348e-03  4.3502e+01  9.2462e-03  0:23:05 1790
  2211  4.8168e-07  1.8137e-11  1.1332e-11  1.8591e-06  1.5593e-08 -1.1348e-03  4.3502e+01  9.2462e-03  0:18:28 1789
  2212  4.8168e-07  1.8137e-11  1.1332e-11  1.8589e-06  1.5594e-08 -1.1348e-03  4.3502e+01  9.2462e-03  0:20:43 1788
  2213  4.8168e-07  1.8137e-11  1.1332e-11  1.8591e-06  1.5593e-08 -1.1348e-03  4.3502e+01  9.2462e-03  0:16:34 1787
  2214  4.8168e-07  1.8137e-11  1.1332e-11  1.8589e-06  1.5594e-08 -1.1348e-03  4.3502e+01  9.2462e-03  0:19:12 1786
  2215  4.8168e-07  1.8137e-11  1.1332e-11  1.8591e-06  1.5593e-08 -1.1348e-03  4.3502e+01  9.2462e-03  0:21:18 1785
  2216  4.8168e-07  1.8137e-11  1.1332e-11  1.8589e-06  1.5594e-08 -1.1348e-03  4.3502e+01  9.2462e-03  0:17:02 1784
  2217  4.8168e-07  1.8137e-11  1.1332e-11  1.8591e-06  1.5593e-08 -1.1348e-03  4.3502e+01  9.2462e-03  0:19:34 1783
  2218  4.8168e-07  1.8137e-11  1.1332e-11  1.8589e-06  1.5594e-08 -1.1348e-03  4.3502e+01  9.2462e-03  0:21:35 1782
  2219  4.8168e-07  1.8137e-11  1.1332e-11  1.8591e-06  1.5593e-08 -1.1348e-03  4.3502e+01  9.2462e-03  0:17:15 1781

  iter  continuity  x-velocity  y-velocity           k       omega     lift-co  drag-force     drag-co     time/iter
  2220  4.8168e-07  1.8137e-11  1.1332e-11  1.8589e-06  1.5594e-08 -1.1348e-03  4.3502e+01  9.2462e-03  0:19:44 1780
  2221  4.8168e-07  1.8137e-11  1.1332e-11  1.8591e-06  1.5593e-08 -1.1348e-03  4.3502e+01  9.2462e-03  0:21:42 1779
  2222  4.8168e-07  1.8137e-11  1.1332e-11  1.8589e-06  1.5594e-08 -1.1348e-03  4.3502e+01  9.2462e-03  0:23:17 1778
  2223  4.8168e-07  1.8137e-11  1.1332e-11  1.8591e-06  1.5593e-08 -1.1348e-03  4.3502e+01  9.2462e-03  0:18:37 1777
  2224  4.8168e-07  1.8137e-11  1.1332e-11  1.8589e-06  1.5594e-08 -1.1348e-03  4.3502e+01  9.2462e-03  0:20:48 1776
  2225  4.8168e-07  1.8137e-11  1.1332e-11  1.8591e-06  1.5593e-08 -1.1348e-03  4.3502e+01  9.2462e-03  0:22:33 1775
  2226  4.8168e-07  1.8137e-11  1.1332e-11  1.8589e-06  1.5594e-08 -1.1348e-03  4.3502e+01  9.2462e-03  0:18:02 1774
  2227  4.8168e-07  1.8137e-11  1.1332e-11  1.8591e-06  1.5593e-08 -1.1348e-03  4.3502e+01  9.2462e-03  0:20:20 1773
  2228  4.8168e-07  1.8137e-11  1.1332e-11  1.8589e-06  1.5594e-08 -1.1348e-03  4.3502e+01  9.2462e-03  0:16:15 1772
  2229  4.8168e-07  1.8137e-11  1.1332e-11  1.8591e-06  1.5593e-08 -1.1348e-03  4.3502e+01  9.2462e-03  0:18:54 1771
  2230  4.8168e-07  1.8137e-11  1.1332e-11  1.8589e-06  1.5594e-08 -1.1348e-03  4.3502e+01  9.2462e-03  0:21:01 1770

  iter  continuity  x-velocity  y-velocity           k       omega     lift-co  drag-force     drag-co     time/iter
  2231  4.8168e-07  1.8137e-11  1.1332e-11  1.8591e-06  1.5593e-08 -1.1348e-03  4.3502e+01  9.2462e-03  0:16:48 1769
  2232  4.8168e-07  1.8137e-11  1.1332e-11  1.8589e-06  1.5594e-08 -1.1348e-03  4.3502e+01  9.2462e-03  0:19:19 1768
  2233  4.8168e-07  1.8137e-11  1.1332e-11  1.8591e-06  1.5593e-08 -1.1348e-03  4.3502e+01  9.2462e-03  0:21:20 1767
  2234  4.8168e-07  1.8137e-11  1.1332e-11  1.8589e-06  1.5594e-08 -1.1348e-03  4.3502e+01  9.2462e-03  0:17:04 1766
  2235  4.8168e-07  1.8137e-11  1.1332e-11  1.8591e-06  1.5593e-08 -1.1348e-03  4.3502e+01  9.2462e-03  0:19:32 1765
  2236  4.8168e-07  1.8137e-11  1.1332e-11  1.8589e-06  1.5594e-08 -1.1348e-03  4.3502e+01  9.2462e-03  0:15:37 1764
  2237  4.8168e-07  1.8137e-11  1.1332e-11  1.8591e-06  1.5593e-08 -1.1348e-03  4.3502e+01  9.2462e-03  0:18:22 1763
  2238  4.8168e-07  1.8137e-11  1.1332e-11  1.8589e-06  1.5594e-08 -1.1348e-03  4.3502e+01  9.2462e-03  0:20:33 1762
  2239  4.8168e-07  1.8137e-11  1.1332e-11  1.8591e-06  1.5593e-08 -1.1348e-03  4.3502e+01  9.2462e-03  0:16:26 1761
  2240  4.8168e-07  1.8137e-11  1.1332e-11  1.8589e-06  1.5594e-08 -1.1348e-03  4.3502e+01  9.2462e-03  0:19:00 1760
  2241  4.8168e-07  1.8137e-11  1.1332e-11  1.8591e-06  1.5593e-08 -1.1348e-03  4.3502e+01  9.2462e-03  0:21:04 1759

  iter  continuity  x-velocity  y-velocity           k       omega     lift-co  drag-force     drag-co     time/iter
  2242  4.8168e-07  1.8137e-11  1.1332e-11  1.8589e-06  1.5594e-08 -1.1348e-03  4.3502e+01  9.2462e-03  0:16:50 1758
  2243  4.8168e-07  1.8137e-11  1.1332e-11  1.8591e-06  1.5593e-08 -1.1348e-03  4.3502e+01  9.2462e-03  0:19:19 1757
  2244  4.8168e-07  1.8137e-11  1.1332e-11  1.8589e-06  1.5594e-08 -1.1348e-03  4.3502e+01  9.2462e-03  0:21:18 1756
  2245  4.8168e-07  1.8137e-11  1.1332e-11  1.8591e-06  1.5593e-08 -1.1348e-03  4.3502e+01  9.2462e-03  0:17:02 1755
  2246  4.8168e-07  1.8137e-11  1.1332e-11  1.8589e-06  1.5594e-08 -1.1348e-03  4.3502e+01  9.2462e-03  0:19:28 1754
  2247  4.8168e-07  1.8137e-11  1.1332e-11  1.8591e-06  1.5593e-08 -1.1348e-03  4.3502e+01  9.2462e-03  0:15:34 1753
  2248  4.8168e-07  1.8137e-11  1.1332e-11  1.8589e-06  1.5594e-08 -1.1348e-03  4.3502e+01  9.2462e-03  0:18:17 1752
  2249  4.8168e-07  1.8137e-11  1.1332e-11  1.8591e-06  1.5593e-08 -1.1348e-03  4.3502e+01  9.2462e-03  0:20:27 1751
  2250  4.8168e-07  1.8137e-11  1.1332e-11  1.8589e-06  1.5594e-08 -1.1348e-03  4.3502e+01  9.2462e-03  0:16:21 1750
  2251  4.8168e-07  1.8137e-11  1.1332e-11  1.8591e-06  1.5593e-08 -1.1348e-03  4.3502e+01  9.2462e-03  0:18:54 1749
  2252  4.8168e-07  1.8137e-11  1.1332e-11  1.8589e-06  1.5594e-08 -1.1348e-03  4.3502e+01  9.2462e-03  0:20:57 1748

  iter  continuity  x-velocity  y-velocity           k       omega     lift-co  drag-force     drag-co     time/iter
  2253  4.8168e-07  1.8137e-11  1.1332e-11  1.8591e-06  1.5593e-08 -1.1348e-03  4.3502e+01  9.2462e-03  0:16:45 1747
  2254  4.8168e-07  1.8137e-11  1.1332e-11  1.8589e-06  1.5594e-08 -1.1348e-03  4.3502e+01  9.2462e-03  0:19:12 1746
  2255  4.8168e-07  1.8137e-11  1.1332e-11  1.8591e-06  1.5593e-08 -1.1348e-03  4.3502e+01  9.2462e-03  0:21:10 1745
  2256  4.8168e-07  1.8137e-11  1.1332e-11  1.8589e-06  1.5594e-08 -1.1348e-03  4.3502e+01  9.2462e-03  0:16:56 1744
  2257  4.8168e-07  1.8137e-11  1.1332e-11  1.8591e-06  1.5593e-08 -1.1348e-03  4.3502e+01  9.2462e-03  0:19:21 1743
  2258  4.8168e-07  1.8137e-11  1.1332e-11  1.8589e-06  1.5594e-08 -1.1348e-03  4.3502e+01  9.2462e-03  0:21:16 1742
  2259  4.8168e-07  1.8137e-11  1.1332e-11  1.8591e-06  1.5593e-08 -1.1348e-03  4.3502e+01  9.2462e-03  0:17:01 1741
  2260  4.8168e-07  1.8137e-11  1.1332e-11  1.8589e-06  1.5594e-08 -1.1348e-03  4.3502e+01  9.2462e-03  0:19:24 1740
  2261  4.8168e-07  1.8137e-11  1.1332e-11  1.8591e-06  1.5593e-08 -1.1348e-03  4.3502e+01  9.2462e-03  0:15:31 1739
  2262  4.8168e-07  1.8137e-11  1.1332e-11  1.8589e-06  1.5594e-08 -1.1348e-03  4.3502e+01  9.2462e-03  0:18:12 1738
  2263  4.8168e-07  1.8137e-11  1.1332e-11  1.8591e-06  1.5593e-08 -1.1348e-03  4.3502e+01  9.2462e-03  0:20:20 1737

  iter  continuity  x-velocity  y-velocity           k       omega     lift-co  drag-force     drag-co     time/iter
  2264  4.8168e-07  1.8137e-11  1.1332e-11  1.8589e-06  1.5594e-08 -1.1348e-03  4.3502e+01  9.2462e-03  0:16:16 1736
  2265  4.8168e-07  1.8137e-11  1.1332e-11  1.8591e-06  1.5593e-08 -1.1348e-03  4.3502e+01  9.2462e-03  0:18:47 1735
  2266  4.8168e-07  1.8137e-11  1.1332e-11  1.8589e-06  1.5594e-08 -1.1348e-03  4.3502e+01  9.2462e-03  0:20:48 1734
  2267  4.8168e-07  1.8137e-11  1.1332e-11  1.8591e-06  1.5593e-08 -1.1348e-03  4.3502e+01  9.2462e-03  0:16:38 1733
  2268  4.8168e-07  1.8137e-11  1.1332e-11  1.8589e-06  1.5594e-08 -1.1348e-03  4.3502e+01  9.2462e-03  0:19:04 1732
  2269  4.8168e-07  1.8137e-11  1.1332e-11  1.8591e-06  1.5593e-08 -1.1348e-03  4.3502e+01  9.2462e-03  0:15:15 1731
  2270  4.8168e-07  1.8137e-11  1.1332e-11  1.8589e-06  1.5594e-08 -1.1348e-03  4.3502e+01  9.2462e-03  0:17:57 1730
  2271  4.8168e-07  1.8137e-11  1.1332e-11  1.8591e-06  1.5593e-08 -1.1348e-03  4.3502e+01  9.2462e-03  0:20:07 1729
  2272  4.8168e-07  1.8137e-11  1.1332e-11  1.8589e-06  1.5594e-08 -1.1348e-03  4.3502e+01  9.2462e-03  0:16:05 1728
  2273  4.8168e-07  1.8137e-11  1.1332e-11  1.8591e-06  1.5593e-08 -1.1348e-03  4.3502e+01  9.2462e-03  0:18:37 1727
  2274  4.8168e-07  1.8137e-11  1.1332e-11  1.8589e-06  1.5594e-08 -1.1348e-03  4.3502e+01  9.2462e-03  0:20:38 1726

  iter  continuity  x-velocity  y-velocity           k       omega     lift-co  drag-force     drag-co     time/iter
  2275  4.8168e-07  1.8137e-11  1.1332e-11  1.8591e-06  1.5593e-08 -1.1348e-03  4.3502e+01  9.2462e-03  0:16:30 1725
  2276  4.8168e-07  1.8137e-11  1.1332e-11  1.8589e-06  1.5594e-08 -1.1348e-03  4.3502e+01  9.2462e-03  0:18:56 1724
  2277  4.8168e-07  1.8137e-11  1.1332e-11  1.8591e-06  1.5593e-08 -1.1348e-03  4.3502e+01  9.2462e-03  0:20:53 1723
  2278  4.8168e-07  1.8137e-11  1.1332e-11  1.8589e-06  1.5594e-08 -1.1348e-03  4.3502e+01  9.2462e-03  0:16:42 1722
  2279  4.8168e-07  1.8137e-11  1.1332e-11  1.8591e-06  1.5593e-08 -1.1348e-03  4.3502e+01  9.2462e-03  0:19:05 1721
  2280  4.8168e-07  1.8137e-11  1.1332e-11  1.8589e-06  1.5594e-08 -1.1348e-03  4.3502e+01  9.2462e-03  0:15:16 1720
  2281  4.8168e-07  1.8137e-11  1.1332e-11  1.8591e-06  1.5593e-08 -1.1348e-03  4.3502e+01  9.2462e-03  0:17:56 1719
  2282  4.8168e-07  1.8137e-11  1.1332e-11  1.8589e-06  1.5594e-08 -1.1348e-03  4.3502e+01  9.2462e-03  0:20:04 1718
  2283  4.8168e-07  1.8137e-11  1.1332e-11  1.8591e-06  1.5593e-08 -1.1348e-03  4.3502e+01  9.2462e-03  0:16:03 1717
  2284  4.8168e-07  1.8137e-11  1.1332e-11  1.8589e-06  1.5594e-08 -1.1348e-03  4.3502e+01  9.2462e-03  0:18:33 1716
  2285  4.8168e-07  1.8137e-11  1.1332e-11  1.8591e-06  1.5593e-08 -1.1348e-03  4.3502e+01  9.2462e-03  0:20:33 1715

  iter  continuity  x-velocity  y-velocity           k       omega     lift-co  drag-force     drag-co     time/iter
  2286  4.8168e-07  1.8137e-11  1.1332e-11  1.8589e-06  1.5594e-08 -1.1348e-03  4.3502e+01  9.2462e-03  0:16:26 1714
  2287  4.8168e-07  1.8137e-11  1.1332e-11  1.8591e-06  1.5593e-08 -1.1348e-03  4.3502e+01  9.2462e-03  0:18:51 1713
  2288  4.8168e-07  1.8137e-11  1.1332e-11  1.8589e-06  1.5594e-08 -1.1348e-03  4.3502e+01  9.2462e-03  0:20:46 1712
  2289  4.8168e-07  1.8137e-11  1.1332e-11  1.8591e-06  1.5593e-08 -1.1348e-03  4.3502e+01  9.2462e-03  0:16:37 1711
  2290  4.8168e-07  1.8137e-11  1.1332e-11  1.8589e-06  1.5594e-08 -1.1348e-03  4.3502e+01  9.2462e-03  0:18:59 1710
  2291  4.8168e-07  1.8137e-11  1.1332e-11  1.8591e-06  1.5593e-08 -1.1348e-03  4.3502e+01  9.2462e-03  0:15:10 1709
  2292  4.8168e-07  1.8137e-11  1.1332e-11  1.8589e-06  1.5594e-08 -1.1348e-03  4.3502e+01  9.2462e-03  0:17:50 1708
  2293  4.8168e-07  1.8137e-11  1.1332e-11  1.8591e-06  1.5593e-08 -1.1348e-03  4.3502e+01  9.2462e-03  0:19:57 1707
  2294  4.8168e-07  1.8137e-11  1.1332e-11  1.8589e-06  1.5594e-08 -1.1348e-03  4.3502e+01  9.2462e-03  0:15:57 1706
  2295  4.8168e-07  1.8137e-11  1.1332e-11  1.8591e-06  1.5593e-08 -1.1348e-03  4.3502e+01  9.2462e-03  0:18:26 1705
  2296  4.8168e-07  1.8137e-11  1.1332e-11  1.8589e-06  1.5594e-08 -1.1348e-03  4.3502e+01  9.2462e-03  0:20:25 1704

  iter  continuity  x-velocity  y-velocity           k       omega     lift-co  drag-force     drag-co     time/iter
  2297  4.8168e-07  1.8137e-11  1.1332e-11  1.8591e-06  1.5593e-08 -1.1348e-03  4.3502e+01  9.2462e-03  0:22:00 1703
  2298  4.8168e-07  1.8137e-11  1.1332e-11  1.8589e-06  1.5594e-08 -1.1348e-03  4.3502e+01  9.2462e-03  0:17:35 1702
  2299  4.8168e-07  1.8137e-11  1.1332e-11  1.8591e-06  1.5593e-08 -1.1348e-03  4.3502e+01  9.2462e-03  0:19:44 1701
  2300  4.8168e-07  1.8137e-11  1.1332e-11  1.8589e-06  1.5594e-08 -1.1348e-03  4.3502e+01  9.2462e-03  0:21:27 1700
  2301  4.8168e-07  1.8137e-11  1.1332e-11  1.8591e-06  1.5593e-08 -1.1348e-03  4.3502e+01  9.2462e-03  0:17:09 1699
  2302  4.8168e-07  1.8137e-11  1.1332e-11  1.8589e-06  1.5594e-08 -1.1348e-03  4.3502e+01  9.2462e-03  0:19:22 1698
  2303  4.8168e-07  1.8137e-11  1.1332e-11  1.8591e-06  1.5593e-08 -1.1348e-03  4.3502e+01  9.2462e-03  0:21:09 1697
  2304  4.8168e-07  1.8137e-11  1.1332e-11  1.8589e-06  1.5594e-08 -1.1348e-03  4.3502e+01  9.2462e-03  0:16:54 1696
  2305  4.8168e-07  1.8137e-11  1.1332e-11  1.8591e-06  1.5593e-08 -1.1348e-03  4.3502e+01  9.2462e-03  0:19:10 1695
  2306  4.8168e-07  1.8137e-11  1.1332e-11  1.8589e-06  1.5594e-08 -1.1348e-03  4.3502e+01  9.2462e-03  0:15:19 1694
  2307  4.8168e-07  1.8137e-11  1.1332e-11  1.8591e-06  1.5593e-08 -1.1348e-03  4.3502e+01  9.2462e-03  0:17:54 1693

  iter  continuity  x-velocity  y-velocity           k       omega     lift-co  drag-force     drag-co     time/iter
  2308  4.8168e-07  1.8137e-11  1.1332e-11  1.8589e-06  1.5594e-08 -1.1348e-03  4.3502e+01  9.2462e-03  0:19:57 1692
  2309  4.8168e-07  1.8137e-11  1.1332e-11  1.8591e-06  1.5593e-08 -1.1348e-03  4.3502e+01  9.2462e-03  0:15:57 1691
  2310  4.8168e-07  1.8137e-11  1.1332e-11  1.8589e-06  1.5594e-08 -1.1348e-03  4.3502e+01  9.2462e-03  0:18:23 1690
  2311  4.8168e-07  1.8137e-11  1.1332e-11  1.8591e-06  1.5593e-08 -1.1348e-03  4.3502e+01  9.2462e-03  0:20:20 1689
  2312  4.8168e-07  1.8137e-11  1.1332e-11  1.8589e-06  1.5594e-08 -1.1348e-03  4.3502e+01  9.2462e-03  0:16:15 1688
  2313  4.8168e-07  1.8137e-11  1.1332e-11  1.8591e-06  1.5593e-08 -1.1348e-03  4.3502e+01  9.2462e-03  0:18:37 1687
  2314  4.8168e-07  1.8137e-11  1.1332e-11  1.8589e-06  1.5594e-08 -1.1348e-03  4.3502e+01  9.2462e-03  0:20:30 1686
  2315  4.8168e-07  1.8137e-11  1.1332e-11  1.8591e-06  1.5593e-08 -1.1348e-03  4.3502e+01  9.2462e-03  0:16:24 1685
  2316  4.8168e-07  1.8137e-11  1.1332e-11  1.8589e-06  1.5594e-08 -1.1348e-03  4.3502e+01  9.2462e-03  0:18:43 1684
  2317  4.8168e-07  1.8137e-11  1.1332e-11  1.8591e-06  1.5593e-08 -1.1348e-03  4.3502e+01  9.2462e-03  0:20:35 1683
  2318  4.8168e-07  1.8137e-11  1.1332e-11  1.8589e-06  1.5594e-08 -1.1348e-03  4.3502e+01  9.2462e-03  0:16:27 1682

  iter  continuity  x-velocity  y-velocity           k       omega     lift-co  drag-force     drag-co     time/iter
  2319  4.8168e-07  1.8137e-11  1.1332e-11  1.8591e-06  1.5593e-08 -1.1348e-03  4.3502e+01  9.2462e-03  0:18:45 1681
  2320  4.8168e-07  1.8137e-11  1.1332e-11  1.8589e-06  1.5594e-08 -1.1348e-03  4.3502e+01  9.2462e-03  0:20:36 1680
  2321  4.8168e-07  1.8137e-11  1.1332e-11  1.8591e-06  1.5593e-08 -1.1348e-03  4.3502e+01  9.2462e-03  0:16:28 1679
  2322  4.8168e-07  1.8137e-11  1.1332e-11  1.8589e-06  1.5594e-08 -1.1348e-03  4.3502e+01  9.2462e-03  0:18:46 1678
  2323  4.8168e-07  1.8137e-11  1.1332e-11  1.8591e-06  1.5593e-08 -1.1348e-03  4.3502e+01  9.2462e-03  0:20:35 1677
  2324  4.8168e-07  1.8137e-11  1.1332e-11  1.8589e-06  1.5594e-08 -1.1348e-03  4.3502e+01  9.2462e-03  0:16:28 1676
  2325  4.8168e-07  1.8137e-11  1.1332e-11  1.8591e-06  1.5593e-08 -1.1348e-03  4.3502e+01  9.2462e-03  0:18:45 1675
  2326  4.8168e-07  1.8137e-11  1.1332e-11  1.8589e-06  1.5594e-08 -1.1348e-03  4.3502e+01  9.2462e-03  0:20:34 1674
  2327  4.8168e-07  1.8137e-11  1.1332e-11  1.8591e-06  1.5593e-08 -1.1348e-03  4.3502e+01  9.2462e-03  0:16:27 1673
  2328  4.8168e-07  1.8137e-11  1.1332e-11  1.8589e-06  1.5594e-08 -1.1348e-03  4.3502e+01  9.2462e-03  0:18:43 1672
  2329  4.8168e-07  1.8137e-11  1.1332e-11  1.8591e-06  1.5593e-08 -1.1348e-03  4.3502e+01  9.2462e-03  0:20:32 1671

  iter  continuity  x-velocity  y-velocity           k       omega     lift-co  drag-force     drag-co     time/iter
  2330  4.8168e-07  1.8137e-11  1.1332e-11  1.8589e-06  1.5594e-08 -1.1348e-03  4.3502e+01  9.2462e-03  0:16:25 1670
  2331  4.8168e-07  1.8137e-11  1.1332e-11  1.8591e-06  1.5593e-08 -1.1348e-03  4.3502e+01  9.2462e-03  0:18:41 1669
  2332  4.8168e-07  1.8137e-11  1.1332e-11  1.8589e-06  1.5594e-08 -1.1348e-03  4.3502e+01  9.2462e-03  0:20:30 1668
  2333  4.8168e-07  1.8137e-11  1.1332e-11  1.8591e-06  1.5593e-08 -1.1348e-03  4.3502e+01  9.2462e-03  0:21:57 1667
  2334  4.8168e-07  1.8137e-11  1.1332e-11  1.8589e-06  1.5594e-08 -1.1348e-03  4.3502e+01  9.2462e-03  0:23:06 1666
  2335  4.8168e-07  1.8137e-11  1.1332e-11  1.8591e-06  1.5593e-08 -1.1348e-03  4.3502e+01  9.2462e-03  0:24:01 1665
  2336  4.8168e-07  1.8137e-11  1.1332e-11  1.8589e-06  1.5594e-08 -1.1348e-03  4.3502e+01  9.2462e-03  0:19:12 1664
  2337  4.8168e-07  1.8137e-11  1.1332e-11  1.8591e-06  1.5593e-08 -1.1348e-03  4.3502e+01  9.2462e-03  0:20:54 1663
  2338  4.8168e-07  1.8137e-11  1.1332e-11  1.8589e-06  1.5594e-08 -1.1348e-03  4.3502e+01  9.2462e-03  0:22:15 1662
  2339  4.8168e-07  1.8137e-11  1.1332e-11  1.8591e-06  1.5593e-08 -1.1348e-03  4.3502e+01  9.2462e-03  0:23:19 1661
  2340  4.8168e-07  1.8137e-11  1.1332e-11  1.8589e-06  1.5594e-08 -1.1348e-03  4.3502e+01  9.2462e-03  0:24:11 1660

  iter  continuity  x-velocity  y-velocity           k       omega     lift-co  drag-force     drag-co     time/iter
  2341  4.8168e-07  1.8137e-11  1.1332e-11  1.8591e-06  1.5593e-08 -1.1348e-03  4.3502e+01  9.2462e-03  0:19:20 1659
  2342  4.8168e-07  1.8137e-11  1.1332e-11  1.8589e-06  1.5594e-08 -1.1348e-03  4.3502e+01  9.2462e-03  0:20:59 1658
  2343  4.8168e-07  1.8137e-11  1.1332e-11  1.8591e-06  1.5593e-08 -1.1348e-03  4.3502e+01  9.2462e-03  0:22:18 1657
  2344  4.8168e-07  1.8137e-11  1.1332e-11  1.8589e-06  1.5594e-08 -1.1348e-03  4.3502e+01  9.2462e-03  0:17:50 1656
  2345  4.8168e-07  1.8137e-11  1.1332e-11  1.8591e-06  1.5593e-08 -1.1348e-03  4.3502e+01  9.2462e-03  0:19:46 1655
  2346  4.8168e-07  1.8137e-11  1.1332e-11  1.8589e-06  1.5594e-08 -1.1348e-03  4.3502e+01  9.2462e-03  0:21:19 1654
  2347  4.8168e-07  1.8137e-11  1.1332e-11  1.8591e-06  1.5593e-08 -1.1348e-03  4.3502e+01  9.2462e-03  0:22:33 1653
  2348  4.8168e-07  1.8137e-11  1.1332e-11  1.8589e-06  1.5594e-08 -1.1348e-03  4.3502e+01  9.2462e-03  0:18:02 1652
  2349  4.8168e-07  1.8137e-11  1.1332e-11  1.8591e-06  1.5593e-08 -1.1348e-03  4.3502e+01  9.2462e-03  0:19:55 1651
  2350  4.8168e-07  1.8137e-11  1.1332e-11  1.8589e-06  1.5594e-08 -1.1348e-03  4.3502e+01  9.2462e-03  0:21:26 1650
  2351  4.8168e-07  1.8137e-11  1.1332e-11  1.8591e-06  1.5593e-08 -1.1348e-03  4.3502e+01  9.2462e-03  0:17:08 1649

  iter  continuity  x-velocity  y-velocity           k       omega     lift-co  drag-force     drag-co     time/iter
  2352  4.8168e-07  1.8137e-11  1.1332e-11  1.8589e-06  1.5594e-08 -1.1348e-03  4.3502e+01  9.2462e-03  0:19:11 1648
  2353  4.8168e-07  1.8137e-11  1.1332e-11  1.8591e-06  1.5593e-08 -1.1348e-03  4.3502e+01  9.2462e-03  0:20:50 1647
  2354  4.8168e-07  1.8137e-11  1.1332e-11  1.8589e-06  1.5594e-08 -1.1348e-03  4.3502e+01  9.2462e-03  0:16:39 1646
  2355  4.8168e-07  1.8137e-11  1.1332e-11  1.8591e-06  1.5593e-08 -1.1348e-03  4.3502e+01  9.2462e-03  0:18:48 1645
  2356  4.8168e-07  1.8137e-11  1.1332e-11  1.8589e-06  1.5594e-08 -1.1348e-03  4.3502e+01  9.2462e-03  0:20:31 1644
  2357  4.8168e-07  1.8137e-11  1.1332e-11  1.8591e-06  1.5593e-08 -1.1348e-03  4.3502e+01  9.2462e-03  0:16:24 1643
  2358  4.8168e-07  1.8137e-11  1.1332e-11  1.8589e-06  1.5594e-08 -1.1348e-03  4.3502e+01  9.2462e-03  0:18:35 1642
  2359  4.8168e-07  1.8137e-11  1.1332e-11  1.8591e-06  1.5593e-08 -1.1348e-03  4.3502e+01  9.2462e-03  0:20:20 1641
  2360  4.8168e-07  1.8137e-11  1.1332e-11  1.8589e-06  1.5594e-08 -1.1348e-03  4.3502e+01  9.2462e-03  0:16:15 1640
  2361  4.8168e-07  1.8137e-11  1.1332e-11  1.8591e-06  1.5593e-08 -1.1348e-03  4.3502e+01  9.2462e-03  0:18:27 1639
  2362  4.8168e-07  1.8137e-11  1.1332e-11  1.8589e-06  1.5594e-08 -1.1348e-03  4.3502e+01  9.2462e-03  0:20:13 1638

  iter  continuity  x-velocity  y-velocity           k       omega     lift-co  drag-force     drag-co     time/iter
  2363  4.8168e-07  1.8137e-11  1.1332e-11  1.8591e-06  1.5593e-08 -1.1348e-03  4.3502e+01  9.2462e-03  0:16:10 1637
  2364  4.8168e-07  1.8137e-11  1.1332e-11  1.8589e-06  1.5594e-08 -1.1348e-03  4.3502e+01  9.2462e-03  0:18:23 1636
  2365  4.8168e-07  1.8137e-11  1.1332e-11  1.8591e-06  1.5593e-08 -1.1348e-03  4.3502e+01  9.2462e-03  0:20:09 1635
  2366  4.8168e-07  1.8137e-11  1.1332e-11  1.8589e-06  1.5594e-08 -1.1348e-03  4.3502e+01  9.2462e-03  0:16:06 1634
  2367  4.8168e-07  1.8137e-11  1.1332e-11  1.8591e-06  1.5593e-08 -1.1348e-03  4.3502e+01  9.2462e-03  0:18:19 1633
  2368  4.8168e-07  1.8137e-11  1.1332e-11  1.8589e-06  1.5594e-08 -1.1348e-03  4.3502e+01  9.2462e-03  0:20:05 1632
  2369  4.8168e-07  1.8137e-11  1.1332e-11  1.8591e-06  1.5593e-08 -1.1348e-03  4.3502e+01  9.2462e-03  0:16:04 1631
  2370  4.8168e-07  1.8137e-11  1.1332e-11  1.8589e-06  1.5594e-08 -1.1348e-03  4.3502e+01  9.2462e-03  0:18:16 1630
  2371  4.8168e-07  1.8137e-11  1.1332e-11  1.8591e-06  1.5593e-08 -1.1348e-03  4.3502e+01  9.2462e-03  0:20:02 1629
  2372  4.8168e-07  1.8137e-11  1.1332e-11  1.8589e-06  1.5594e-08 -1.1348e-03  4.3502e+01  9.2462e-03  0:21:27 1628
  2373  4.8168e-07  1.8137e-11  1.1332e-11  1.8591e-06  1.5593e-08 -1.1348e-03  4.3502e+01  9.2462e-03  0:17:09 1627

  iter  continuity  x-velocity  y-velocity           k       omega     lift-co  drag-force     drag-co     time/iter
  2374  4.8168e-07  1.8137e-11  1.1332e-11  1.8589e-06  1.5594e-08 -1.1348e-03  4.3502e+01  9.2462e-03  0:19:08 1626
  2375  4.8168e-07  1.8137e-11  1.1332e-11  1.8591e-06  1.5593e-08 -1.1348e-03  4.3502e+01  9.2462e-03  0:15:18 1625
  2376  4.8168e-07  1.8137e-11  1.1332e-11  1.8589e-06  1.5594e-08 -1.1348e-03  4.3502e+01  9.2462e-03  0:17:38 1624
  2377  4.8168e-07  1.8137e-11  1.1332e-11  1.8591e-06  1.5593e-08 -1.1348e-03  4.3502e+01  9.2462e-03  0:19:31 1623
  2378  4.8168e-07  1.8137e-11  1.1332e-11  1.8589e-06  1.5594e-08 -1.1348e-03  4.3502e+01  9.2462e-03  0:15:36 1622
  2379  4.8168e-07  1.8137e-11  1.1332e-11  1.8591e-06  1.5593e-08 -1.1348e-03  4.3502e+01  9.2462e-03  0:17:53 1621
  2380  4.8168e-07  1.8137e-11  1.1332e-11  1.8589e-06  1.5594e-08 -1.1348e-03  4.3502e+01  9.2462e-03  0:19:42 1620
  2381  4.8168e-07  1.8137e-11  1.1332e-11  1.8591e-06  1.5593e-08 -1.1348e-03  4.3502e+01  9.2462e-03  0:15:45 1619
  2382  4.8168e-07  1.8137e-11  1.1332e-11  1.8589e-06  1.5594e-08 -1.1348e-03  4.3502e+01  9.2462e-03  0:17:59 1618
  2383  4.8168e-07  1.8137e-11  1.1332e-11  1.8591e-06  1.5593e-08 -1.1348e-03  4.3502e+01  9.2462e-03  0:19:46 1617
  2384  4.8168e-07  1.8137e-11  1.1332e-11  1.8589e-06  1.5594e-08 -1.1348e-03  4.3502e+01  9.2462e-03  0:15:48 1616

  iter  continuity  x-velocity  y-velocity           k       omega     lift-co  drag-force     drag-co     time/iter
  2385  4.8168e-07  1.8137e-11  1.1332e-11  1.8591e-06  1.5593e-08 -1.1348e-03  4.3502e+01  9.2462e-03  0:18:01 1615
  2386  4.8168e-07  1.8137e-11  1.1332e-11  1.8589e-06  1.5594e-08 -1.1348e-03  4.3502e+01  9.2462e-03  0:19:47 1614
  2387  4.8168e-07  1.8137e-11  1.1332e-11  1.8591e-06  1.5593e-08 -1.1348e-03  4.3502e+01  9.2462e-03  0:15:49 1613
  2388  4.8168e-07  1.8137e-11  1.1332e-11  1.8589e-06  1.5594e-08 -1.1348e-03  4.3502e+01  9.2462e-03  0:18:01 1612
  2389  4.8168e-07  1.8137e-11  1.1332e-11  1.8591e-06  1.5593e-08 -1.1348e-03  4.3502e+01  9.2462e-03  0:19:47 1611
  2390  4.8168e-07  1.8137e-11  1.1332e-11  1.8589e-06  1.5594e-08 -1.1348e-03  4.3502e+01  9.2462e-03  0:15:49 1610
  2391  4.8168e-07  1.8137e-11  1.1332e-11  1.8591e-06  1.5593e-08 -1.1348e-03  4.3502e+01  9.2462e-03  0:18:00 1609
  2392  4.8168e-07  1.8137e-11  1.1332e-11  1.8589e-06  1.5594e-08 -1.1348e-03  4.3502e+01  9.2462e-03  0:19:45 1608
  2393  4.8168e-07  1.8137e-11  1.1332e-11  1.8591e-06  1.5593e-08 -1.1348e-03  4.3502e+01  9.2462e-03  0:15:48 1607
  2394  4.8168e-07  1.8137e-11  1.1332e-11  1.8589e-06  1.5594e-08 -1.1348e-03  4.3502e+01  9.2462e-03  0:17:59 1606
  2395  4.8168e-07  1.8137e-11  1.1332e-11  1.8591e-06  1.5593e-08 -1.1348e-03  4.3502e+01  9.2462e-03  0:14:23 1605

  iter  continuity  x-velocity  y-velocity           k       omega     lift-co  drag-force     drag-co     time/iter
  2396  4.8168e-07  1.8137e-11  1.1332e-11  1.8589e-06  1.5594e-08 -1.1348e-03  4.3502e+01  9.2462e-03  0:16:50 1604
  2397  4.8168e-07  1.8137e-11  1.1332e-11  1.8591e-06  1.5593e-08 -1.1348e-03  4.3502e+01  9.2462e-03  0:18:48 1603
  2398  4.8168e-07  1.8137e-11  1.1332e-11  1.8589e-06  1.5594e-08 -1.1348e-03  4.3502e+01  9.2462e-03  0:15:02 1602
  2399  4.8168e-07  1.8137e-11  1.1332e-11  1.8591e-06  1.5593e-08 -1.1348e-03  4.3502e+01  9.2462e-03  0:17:21 1601
  2400  4.8168e-07  1.8137e-11  1.1332e-11  1.8589e-06  1.5594e-08 -1.1348e-03  4.3502e+01  9.2462e-03  0:19:13 1600
  2401  4.8168e-07  1.8137e-11  1.1332e-11  1.8591e-06  1.5593e-08 -1.1348e-03  4.3502e+01  9.2462e-03  0:15:22 1599
  2402  4.8168e-07  1.8137e-11  1.1332e-11  1.8589e-06  1.5594e-08 -1.1348e-03  4.3502e+01  9.2462e-03  0:17:36 1598
  2403  4.8168e-07  1.8137e-11  1.1332e-11  1.8591e-06  1.5593e-08 -1.1348e-03  4.3502e+01  9.2462e-03  0:19:24 1597
  2404  4.8168e-07  1.8137e-11  1.1332e-11  1.8589e-06  1.5594e-08 -1.1348e-03  4.3502e+01  9.2462e-03  0:15:31 1596
  2405  4.8168e-07  1.8137e-11  1.1332e-11  1.8591e-06  1.5593e-08 -1.1348e-03  4.3502e+01  9.2462e-03  0:17:43 1595
  2406  4.8168e-07  1.8137e-11  1.1332e-11  1.8589e-06  1.5594e-08 -1.1348e-03  4.3502e+01  9.2462e-03  0:14:10 1594

  iter  continuity  x-velocity  y-velocity           k       omega     lift-co  drag-force     drag-co     time/iter
  2407  4.8168e-07  1.8137e-11  1.1332e-11  1.8591e-06  1.5593e-08 -1.1348e-03  4.3502e+01  9.2462e-03  0:16:38 1593
  2408  4.8168e-07  1.8137e-11  1.1332e-11  1.8589e-06  1.5594e-08 -1.1348e-03  4.3502e+01  9.2462e-03  0:18:36 1592
  2409  4.8168e-07  1.8137e-11  1.1332e-11  1.8591e-06  1.5593e-08 -1.1348e-03  4.3502e+01  9.2462e-03  0:14:53 1591
  2410  4.8168e-07  1.8137e-11  1.1332e-11  1.8589e-06  1.5594e-08 -1.1348e-03  4.3502e+01  9.2462e-03  0:17:12 1590
  2411  4.8168e-07  1.8137e-11  1.1332e-11  1.8591e-06  1.5593e-08 -1.1348e-03  4.3502e+01  9.2462e-03  0:19:03 1589
  2412  4.8168e-07  1.8137e-11  1.1332e-11  1.8589e-06  1.5594e-08 -1.1348e-03  4.3502e+01  9.2462e-03  0:20:31 1588
  2413  4.8168e-07  1.8137e-11  1.1332e-11  1.8591e-06  1.5593e-08 -1.1348e-03  4.3502e+01  9.2462e-03  0:16:24 1587
  2414  4.8168e-07  1.8137e-11  1.1332e-11  1.8589e-06  1.5594e-08 -1.1348e-03  4.3502e+01  9.2462e-03  0:18:24 1586
  2415  4.8168e-07  1.8137e-11  1.1332e-11  1.8591e-06  1.5593e-08 -1.1348e-03  4.3502e+01  9.2462e-03  0:14:43 1585
  2416  4.8168e-07  1.8137e-11  1.1332e-11  1.8589e-06  1.5594e-08 -1.1348e-03  4.3502e+01  9.2462e-03  0:17:03 1584
  2417  4.8168e-07  1.8137e-11  1.1332e-11  1.8591e-06  1.5593e-08 -1.1348e-03  4.3502e+01  9.2462e-03  0:18:54 1583

  iter  continuity  x-velocity  y-velocity           k       omega     lift-co  drag-force     drag-co     time/iter
  2418  4.8168e-07  1.8137e-11  1.1332e-11  1.8589e-06  1.5594e-08 -1.1348e-03  4.3502e+01  9.2462e-03  0:15:07 1582
  2419  4.8168e-07  1.8137e-11  1.1332e-11  1.8591e-06  1.5593e-08 -1.1348e-03  4.3502e+01  9.2462e-03  0:17:21 1581
  2420  4.8168e-07  1.8137e-11  1.1332e-11  1.8589e-06  1.5594e-08 -1.1348e-03  4.3502e+01  9.2462e-03  0:19:08 1580
  2421  4.8168e-07  1.8137e-11  1.1332e-11  1.8591e-06  1.5593e-08 -1.1348e-03  4.3502e+01  9.2462e-03  0:15:18 1579
  2422  4.8168e-07  1.8137e-11  1.1332e-11  1.8589e-06  1.5594e-08 -1.1348e-03  4.3502e+01  9.2462e-03  0:17:30 1578
  2423  4.8168e-07  1.8137e-11  1.1332e-11  1.8591e-06  1.5593e-08 -1.1348e-03  4.3502e+01  9.2462e-03  0:19:15 1577
  2424  4.8168e-07  1.8137e-11  1.1332e-11  1.8589e-06  1.5594e-08 -1.1348e-03  4.3502e+01  9.2462e-03  0:15:23 1576
  2425  4.8168e-07  1.8137e-11  1.1332e-11  1.8591e-06  1.5593e-08 -1.1348e-03  4.3502e+01  9.2462e-03  0:17:33 1575
  2426  4.8168e-07  1.8137e-11  1.1332e-11  1.8589e-06  1.5594e-08 -1.1348e-03  4.3502e+01  9.2462e-03  0:14:02 1574
  2427  4.8168e-07  1.8137e-11  1.1332e-11  1.8591e-06  1.5593e-08 -1.1348e-03  4.3502e+01  9.2462e-03  0:16:28 1573
  2428  4.8168e-07  1.8137e-11  1.1332e-11  1.8589e-06  1.5594e-08 -1.1348e-03  4.3502e+01  9.2462e-03  0:18:24 1572

  iter  continuity  x-velocity  y-velocity           k       omega     lift-co  drag-force     drag-co     time/iter
  2429  4.8168e-07  1.8137e-11  1.1332e-11  1.8591e-06  1.5593e-08 -1.1348e-03  4.3502e+01  9.2462e-03  0:14:43 1571
  2430  4.8168e-07  1.8137e-11  1.1332e-11  1.8589e-06  1.5594e-08 -1.1348e-03  4.3502e+01  9.2462e-03  0:17:00 1570
  2431  4.8168e-07  1.8137e-11  1.1332e-11  1.8591e-06  1.5593e-08 -1.1348e-03  4.3502e+01  9.2462e-03  0:18:49 1569
  2432  4.8168e-07  1.8137e-11  1.1332e-11  1.8589e-06  1.5594e-08 -1.1348e-03  4.3502e+01  9.2462e-03  0:15:03 1568
  2433  4.8168e-07  1.8137e-11  1.1332e-11  1.8591e-06  1.5593e-08 -1.1348e-03  4.3502e+01  9.2462e-03  0:17:15 1567
  2434  4.8168e-07  1.8137e-11  1.1332e-11  1.8589e-06  1.5594e-08 -1.1348e-03  4.3502e+01  9.2462e-03  0:19:01 1566
  2435  4.8168e-07  1.8137e-11  1.1332e-11  1.8591e-06  1.5593e-08 -1.1348e-03  4.3502e+01  9.2462e-03  0:15:12 1565
  2436  4.8168e-07  1.8137e-11  1.1332e-11  1.8589e-06  1.5594e-08 -1.1348e-03  4.3502e+01  9.2462e-03  0:17:22 1564
  2437  4.8168e-07  1.8137e-11  1.1332e-11  1.8591e-06  1.5593e-08 -1.1348e-03  4.3502e+01  9.2462e-03  0:19:06 1563
  2438  4.8168e-07  1.8137e-11  1.1332e-11  1.8589e-06  1.5594e-08 -1.1348e-03  4.3502e+01  9.2462e-03  0:15:16 1562
  2439  4.8168e-07  1.8137e-11  1.1332e-11  1.8591e-06  1.5593e-08 -1.1348e-03  4.3502e+01  9.2462e-03  0:17:24 1561

  iter  continuity  x-velocity  y-velocity           k       omega     lift-co  drag-force     drag-co     time/iter
  2440  4.8168e-07  1.8137e-11  1.1332e-11  1.8589e-06  1.5594e-08 -1.1348e-03  4.3502e+01  9.2462e-03  0:13:55 1560
  2441  4.8168e-07  1.8137e-11  1.1332e-11  1.8591e-06  1.5593e-08 -1.1348e-03  4.3502e+01  9.2462e-03  0:16:19 1559
  2442  4.8168e-07  1.8137e-11  1.1332e-11  1.8589e-06  1.5594e-08 -1.1348e-03  4.3502e+01  9.2462e-03  0:18:15 1558
  2443  4.8168e-07  1.8137e-11  1.1332e-11  1.8591e-06  1.5593e-08 -1.1348e-03  4.3502e+01  9.2462e-03  0:14:35 1557
  2444  4.8168e-07  1.8137e-11  1.1332e-11  1.8589e-06  1.5594e-08 -1.1348e-03  4.3502e+01  9.2462e-03  0:16:51 1556
  2445  4.8168e-07  1.8137e-11  1.1332e-11  1.8591e-06  1.5593e-08 -1.1348e-03  4.3502e+01  9.2462e-03  0:18:39 1555
  2446  4.8168e-07  1.8137e-11  1.1332e-11  1.8589e-06  1.5594e-08 -1.1348e-03  4.3502e+01  9.2462e-03  0:20:06 1554
  2447  4.8168e-07  1.8137e-11  1.1332e-11  1.8591e-06  1.5593e-08 -1.1348e-03  4.3502e+01  9.2462e-03  0:16:04 1553
  2448  4.8168e-07  1.8137e-11  1.1332e-11  1.8589e-06  1.5594e-08 -1.1348e-03  4.3502e+01  9.2462e-03  0:18:01 1552
  2449  4.8168e-07  1.8137e-11  1.1332e-11  1.8591e-06  1.5593e-08 -1.1348e-03  4.3502e+01  9.2462e-03  0:19:34 1551
  2450  4.8168e-07  1.8137e-11  1.1332e-11  1.8589e-06  1.5594e-08 -1.1348e-03  4.3502e+01  9.2462e-03  0:15:39 1550

  iter  continuity  x-velocity  y-velocity           k       omega     lift-co  drag-force     drag-co     time/iter
  2451  4.8168e-07  1.8137e-11  1.1332e-11  1.8591e-06  1.5593e-08 -1.1348e-03  4.3502e+01  9.2462e-03  0:17:40 1549
  2452  4.8168e-07  1.8137e-11  1.1332e-11  1.8589e-06  1.5594e-08 -1.1348e-03  4.3502e+01  9.2462e-03  0:19:17 1548
  2453  4.8168e-07  1.8137e-11  1.1332e-11  1.8591e-06  1.5593e-08 -1.1348e-03  4.3502e+01  9.2462e-03  0:15:25 1547
  2454  4.8168e-07  1.8137e-11  1.1332e-11  1.8589e-06  1.5594e-08 -1.1348e-03  4.3502e+01  9.2462e-03  0:17:29 1546
  2455  4.8168e-07  1.8137e-11  1.1332e-11  1.8591e-06  1.5593e-08 -1.1348e-03  4.3502e+01  9.2462e-03  0:13:59 1545
  2456  4.8168e-07  1.8137e-11  1.1332e-11  1.8589e-06  1.5594e-08 -1.1348e-03  4.3502e+01  9.2462e-03  0:16:19 1544
  2457  4.8168e-07  1.8137e-11  1.1332e-11  1.8591e-06  1.5593e-08 -1.1348e-03  4.3502e+01  9.2462e-03  0:18:12 1543
  2458  4.8168e-07  1.8137e-11  1.1332e-11  1.8589e-06  1.5594e-08 -1.1348e-03  4.3502e+01  9.2462e-03  0:14:33 1542
  2459  4.8168e-07  1.8137e-11  1.1332e-11  1.8591e-06  1.5593e-08 -1.1348e-03  4.3502e+01  9.2462e-03  0:16:46 1541
  2460  4.8168e-07  1.8137e-11  1.1332e-11  1.8589e-06  1.5594e-08 -1.1348e-03  4.3502e+01  9.2462e-03  0:18:32 1540
  2461  4.8168e-07  1.8137e-11  1.1332e-11  1.8591e-06  1.5593e-08 -1.1348e-03  4.3502e+01  9.2462e-03  0:14:49 1539

  iter  continuity  x-velocity  y-velocity           k       omega     lift-co  drag-force     drag-co     time/iter
  2462  4.8168e-07  1.8137e-11  1.1332e-11  1.8589e-06  1.5594e-08 -1.1348e-03  4.3502e+01  9.2462e-03  0:16:58 1538
  2463  4.8168e-07  1.8137e-11  1.1332e-11  1.8591e-06  1.5593e-08 -1.1348e-03  4.3502e+01  9.2462e-03  0:18:42 1537
  2464  4.8168e-07  1.8137e-11  1.1332e-11  1.8589e-06  1.5594e-08 -1.1348e-03  4.3502e+01  9.2462e-03  0:14:57 1536
  2465  4.8168e-07  1.8137e-11  1.1332e-11  1.8591e-06  1.5593e-08 -1.1348e-03  4.3502e+01  9.2462e-03  0:17:04 1535
  2466  4.8168e-07  1.8137e-11  1.1332e-11  1.8589e-06  1.5594e-08 -1.1348e-03  4.3502e+01  9.2462e-03  0:18:45 1534
  2467  4.8168e-07  1.8137e-11  1.1332e-11  1.8591e-06  1.5593e-08 -1.1348e-03  4.3502e+01  9.2462e-03  0:15:00 1533
  2468  4.8168e-07  1.8137e-11  1.1332e-11  1.8589e-06  1.5594e-08 -1.1348e-03  4.3502e+01  9.2462e-03  0:17:06 1532
  2469  4.8168e-07  1.8137e-11  1.1332e-11  1.8591e-06  1.5593e-08 -1.1348e-03  4.3502e+01  9.2462e-03  0:13:40 1531
  2470  4.8168e-07  1.8137e-11  1.1332e-11  1.8589e-06  1.5594e-08 -1.1348e-03  4.3502e+01  9.2462e-03  0:16:02 1530
  2471  4.8168e-07  1.8137e-11  1.1332e-11  1.8591e-06  1.5593e-08 -1.1348e-03  4.3502e+01  9.2462e-03  0:17:55 1529
  2472  4.8168e-07  1.8137e-11  1.1332e-11  1.8589e-06  1.5594e-08 -1.1348e-03  4.3502e+01  9.2462e-03  0:14:19 1528

  iter  continuity  x-velocity  y-velocity           k       omega     lift-co  drag-force     drag-co     time/iter
  2473  4.8168e-07  1.8137e-11  1.1332e-11  1.8591e-06  1.5593e-08 -1.1348e-03  4.3502e+01  9.2462e-03  0:16:32 1527
  2474  4.8168e-07  1.8137e-11  1.1332e-11  1.8589e-06  1.5594e-08 -1.1348e-03  4.3502e+01  9.2462e-03  0:18:18 1526
  2475  4.8168e-07  1.8137e-11  1.1332e-11  1.8591e-06  1.5593e-08 -1.1348e-03  4.3502e+01  9.2462e-03  0:14:38 1525
  2476  4.8168e-07  1.8137e-11  1.1332e-11  1.8589e-06  1.5594e-08 -1.1348e-03  4.3502e+01  9.2462e-03  0:16:47 1524
  2477  4.8168e-07  1.8137e-11  1.1332e-11  1.8591e-06  1.5593e-08 -1.1348e-03  4.3502e+01  9.2462e-03  0:18:30 1523
  2478  4.8168e-07  1.8137e-11  1.1332e-11  1.8589e-06  1.5594e-08 -1.1348e-03  4.3502e+01  9.2462e-03  0:14:47 1522
  2479  4.8168e-07  1.8137e-11  1.1332e-11  1.8591e-06  1.5593e-08 -1.1348e-03  4.3502e+01  9.2462e-03  0:16:53 1521
  2480  4.8168e-07  1.8137e-11  1.1332e-11  1.8589e-06  1.5594e-08 -1.1348e-03  4.3502e+01  9.2462e-03  0:18:34 1520
  2481  4.8168e-07  1.8137e-11  1.1332e-11  1.8591e-06  1.5593e-08 -1.1348e-03  4.3502e+01  9.2462e-03  0:14:51 1519
  2482  4.8168e-07  1.8137e-11  1.1332e-11  1.8589e-06  1.5594e-08 -1.1348e-03  4.3502e+01  9.2462e-03  0:16:56 1518
  2483  4.8168e-07  1.8137e-11  1.1332e-11  1.8591e-06  1.5593e-08 -1.1348e-03  4.3502e+01  9.2462e-03  0:18:35 1517

  iter  continuity  x-velocity  y-velocity           k       omega     lift-co  drag-force     drag-co     time/iter
  2484  4.8168e-07  1.8137e-11  1.1332e-11  1.8589e-06  1.5594e-08 -1.1348e-03  4.3502e+01  9.2462e-03  0:14:52 1516
  2485  4.8168e-07  1.8137e-11  1.1332e-11  1.8591e-06  1.5593e-08 -1.1348e-03  4.3502e+01  9.2462e-03  0:16:56 1515
  2486  4.8168e-07  1.8137e-11  1.1332e-11  1.8589e-06  1.5594e-08 -1.1348e-03  4.3502e+01  9.2462e-03  0:18:35 1514
  2487  4.8168e-07  1.8137e-11  1.1332e-11  1.8591e-06  1.5593e-08 -1.1348e-03  4.3502e+01  9.2462e-03  0:14:51 1513
  2488  4.8168e-07  1.8137e-11  1.1332e-11  1.8589e-06  1.5594e-08 -1.1348e-03  4.3502e+01  9.2462e-03  0:16:55 1512
  2489  4.8168e-07  1.8137e-11  1.1332e-11  1.8591e-06  1.5593e-08 -1.1348e-03  4.3502e+01  9.2462e-03  0:18:34 1511
  2490  4.8168e-07  1.8137e-11  1.1332e-11  1.8589e-06  1.5594e-08 -1.1348e-03  4.3502e+01  9.2462e-03  0:14:50 1510
  2491  4.8168e-07  1.8137e-11  1.1332e-11  1.8591e-06  1.5593e-08 -1.1348e-03  4.3502e+01  9.2462e-03  0:16:54 1509
  2492  4.8168e-07  1.8137e-11  1.1332e-11  1.8589e-06  1.5594e-08 -1.1348e-03  4.3502e+01  9.2462e-03  0:18:32 1508
  2493  4.8168e-07  1.8137e-11  1.1332e-11  1.8591e-06  1.5593e-08 -1.1348e-03  4.3502e+01  9.2462e-03  0:14:49 1507
  2494  4.8168e-07  1.8137e-11  1.1332e-11  1.8589e-06  1.5594e-08 -1.1348e-03  4.3502e+01  9.2462e-03  0:16:52 1506

  iter  continuity  x-velocity  y-velocity           k       omega     lift-co  drag-force     drag-co     time/iter
  2495  4.8168e-07  1.8137e-11  1.1332e-11  1.8591e-06  1.5593e-08 -1.1348e-03  4.3502e+01  9.2462e-03  0:18:30 1505
  2496  4.8168e-07  1.8137e-11  1.1332e-11  1.8589e-06  1.5594e-08 -1.1348e-03  4.3502e+01  9.2462e-03  0:14:47 1504
  2497  4.8168e-07  1.8137e-11  1.1332e-11  1.8591e-06  1.5593e-08 -1.1348e-03  4.3502e+01  9.2462e-03  0:16:50 1503
  2498  4.8168e-07  1.8137e-11  1.1332e-11  1.8589e-06  1.5594e-08 -1.1348e-03  4.3502e+01  9.2462e-03  0:18:28 1502
  2499  4.8168e-07  1.8137e-11  1.1332e-11  1.8591e-06  1.5593e-08 -1.1348e-03  4.3502e+01  9.2462e-03  0:14:46 1501
  2500  4.8168e-07  1.8137e-11  1.1332e-11  1.8589e-06  1.5594e-08 -1.1348e-03  4.3502e+01  9.2462e-03  0:16:48 1500
  2501  4.8168e-07  1.8137e-11  1.1332e-11  1.8591e-06  1.5593e-08 -1.1348e-03  4.3502e+01  9.2462e-03  0:13:26 1499
  2502  4.8168e-07  1.8137e-11  1.1332e-11  1.8589e-06  1.5594e-08 -1.1348e-03  4.3502e+01  9.2462e-03  0:15:44 1498
  2503  4.8168e-07  1.8137e-11  1.1332e-11  1.8591e-06  1.5593e-08 -1.1348e-03  4.3502e+01  9.2462e-03  0:17:34 1497
  2504  4.8168e-07  1.8137e-11  1.1332e-11  1.8589e-06  1.5594e-08 -1.1348e-03  4.3502e+01  9.2462e-03  0:14:03 1496
  2505  4.8168e-07  1.8137e-11  1.1332e-11  1.8591e-06  1.5593e-08 -1.1348e-03  4.3502e+01  9.2462e-03  0:16:13 1495

  iter  continuity  x-velocity  y-velocity           k       omega     lift-co  drag-force     drag-co     time/iter
  2506  4.8168e-07  1.8137e-11  1.1332e-11  1.8589e-06  1.5594e-08 -1.1348e-03  4.3502e+01  9.2462e-03  0:17:56 1494
  2507  4.8168e-07  1.8137e-11  1.1332e-11  1.8591e-06  1.5593e-08 -1.1348e-03  4.3502e+01  9.2462e-03  0:14:21 1493
  2508  4.8168e-07  1.8137e-11  1.1332e-11  1.8589e-06  1.5594e-08 -1.1348e-03  4.3502e+01  9.2462e-03  0:16:26 1492
  2509  4.8168e-07  1.8137e-11  1.1332e-11  1.8591e-06  1.5593e-08 -1.1348e-03  4.3502e+01  9.2462e-03  0:18:07 1491
  2510  4.8168e-07  1.8137e-11  1.1332e-11  1.8589e-06  1.5594e-08 -1.1348e-03  4.3502e+01  9.2462e-03  0:14:29 1490
  2511  4.8168e-07  1.8137e-11  1.1332e-11  1.8591e-06  1.5593e-08 -1.1348e-03  4.3502e+01  9.2462e-03  0:16:32 1489
  2512  4.8168e-07  1.8137e-11  1.1332e-11  1.8589e-06  1.5594e-08 -1.1348e-03  4.3502e+01  9.2462e-03  0:18:11 1488
  2513  4.8168e-07  1.8137e-11  1.1332e-11  1.8591e-06  1.5593e-08 -1.1348e-03  4.3502e+01  9.2462e-03  0:14:32 1487
  2514  4.8168e-07  1.8137e-11  1.1332e-11  1.8589e-06  1.5594e-08 -1.1348e-03  4.3502e+01  9.2462e-03  0:16:34 1486
  2515  4.8168e-07  1.8137e-11  1.1332e-11  1.8591e-06  1.5593e-08 -1.1348e-03  4.3502e+01  9.2462e-03  0:18:12 1485
  2516  4.8168e-07  1.8137e-11  1.1332e-11  1.8589e-06  1.5594e-08 -1.1348e-03  4.3502e+01  9.2462e-03  0:14:33 1484

  iter  continuity  x-velocity  y-velocity           k       omega     lift-co  drag-force     drag-co     time/iter
  2517  4.8168e-07  1.8137e-11  1.1332e-11  1.8591e-06  1.5593e-08 -1.1348e-03  4.3502e+01  9.2462e-03  0:16:35 1483
  2518  4.8168e-07  1.8137e-11  1.1332e-11  1.8589e-06  1.5594e-08 -1.1348e-03  4.3502e+01  9.2462e-03  0:18:12 1482
  2519  4.8168e-07  1.8137e-11  1.1332e-11  1.8591e-06  1.5593e-08 -1.1348e-03  4.3502e+01  9.2462e-03  0:19:29 1481
  2520  4.8168e-07  1.8137e-11  1.1332e-11  1.8589e-06  1.5594e-08 -1.1348e-03  4.3502e+01  9.2462e-03  0:15:34 1480
  2521  4.8168e-07  1.8137e-11  1.1332e-11  1.8591e-06  1.5593e-08 -1.1348e-03  4.3502e+01  9.2462e-03  0:17:23 1479
  2522  4.8168e-07  1.8137e-11  1.1332e-11  1.8589e-06  1.5594e-08 -1.1348e-03  4.3502e+01  9.2462e-03  0:18:49 1478
  2523  4.8168e-07  1.8137e-11  1.1332e-11  1.8591e-06  1.5593e-08 -1.1348e-03  4.3502e+01  9.2462e-03  0:15:03 1477
  2524  4.8168e-07  1.8137e-11  1.1332e-11  1.8589e-06  1.5594e-08 -1.1348e-03  4.3502e+01  9.2462e-03  0:16:57 1476
  2525  4.8168e-07  1.8137e-11  1.1332e-11  1.8591e-06  1.5593e-08 -1.1348e-03  4.3502e+01  9.2462e-03  0:13:33 1475
  2526  4.8168e-07  1.8137e-11  1.1332e-11  1.8589e-06  1.5594e-08 -1.1348e-03  4.3502e+01  9.2462e-03  0:15:45 1474
  2527  4.8168e-07  1.8137e-11  1.1332e-11  1.8591e-06  1.5593e-08 -1.1348e-03  4.3502e+01  9.2462e-03  0:17:30 1473

  iter  continuity  x-velocity  y-velocity           k       omega     lift-co  drag-force     drag-co     time/iter
  2528  4.8168e-07  1.8137e-11  1.1332e-11  1.8589e-06  1.5594e-08 -1.1348e-03  4.3502e+01  9.2462e-03  0:13:59 1472
  2529  4.8168e-07  1.8137e-11  1.1332e-11  1.8591e-06  1.5593e-08 -1.1348e-03  4.3502e+01  9.2462e-03  0:16:05 1471
  2530  4.8168e-07  1.8137e-11  1.1332e-11  1.8589e-06  1.5594e-08 -1.1348e-03  4.3502e+01  9.2462e-03  0:17:46 1470
  2531  4.8168e-07  1.8137e-11  1.1332e-11  1.8591e-06  1.5593e-08 -1.1348e-03  4.3502e+01  9.2462e-03  0:14:12 1469
  2532  4.8168e-07  1.8137e-11  1.1332e-11  1.8589e-06  1.5594e-08 -1.1348e-03  4.3502e+01  9.2462e-03  0:16:15 1468
  2533  4.8168e-07  1.8137e-11  1.1332e-11  1.8591e-06  1.5593e-08 -1.1348e-03  4.3502e+01  9.2462e-03  0:17:53 1467
  2534  4.8168e-07  1.8137e-11  1.1332e-11  1.8589e-06  1.5594e-08 -1.1348e-03  4.3502e+01  9.2462e-03  0:14:18 1466
  2535  4.8168e-07  1.8137e-11  1.1332e-11  1.8591e-06  1.5593e-08 -1.1348e-03  4.3502e+01  9.2462e-03  0:16:19 1465
  2536  4.8168e-07  1.8137e-11  1.1332e-11  1.8589e-06  1.5594e-08 -1.1348e-03  4.3502e+01  9.2462e-03  0:17:55 1464
  2537  4.8168e-07  1.8137e-11  1.1332e-11  1.8591e-06  1.5593e-08 -1.1348e-03  4.3502e+01  9.2462e-03  0:14:19 1463
  2538  4.8168e-07  1.8137e-11  1.1332e-11  1.8589e-06  1.5594e-08 -1.1348e-03  4.3502e+01  9.2462e-03  0:16:20 1462

  iter  continuity  x-velocity  y-velocity           k       omega     lift-co  drag-force     drag-co     time/iter
  2539  4.8168e-07  1.8137e-11  1.1332e-11  1.8591e-06  1.5593e-08 -1.1348e-03  4.3502e+01  9.2462e-03  0:13:03 1461
  2540  4.8168e-07  1.8137e-11  1.1332e-11  1.8589e-06  1.5594e-08 -1.1348e-03  4.3502e+01  9.2462e-03  0:15:18 1460
  2541  4.8168e-07  1.8137e-11  1.1332e-11  1.8591e-06  1.5593e-08 -1.1348e-03  4.3502e+01  9.2462e-03  0:17:06 1459
  2542  4.8168e-07  1.8137e-11  1.1332e-11  1.8589e-06  1.5594e-08 -1.1348e-03  4.3502e+01  9.2462e-03  0:13:40 1458
  2543  4.8168e-07  1.8137e-11  1.1332e-11  1.8591e-06  1.5593e-08 -1.1348e-03  4.3502e+01  9.2462e-03  0:15:47 1457
  2544  4.8168e-07  1.8137e-11  1.1332e-11  1.8589e-06  1.5594e-08 -1.1348e-03  4.3502e+01  9.2462e-03  0:17:28 1456
  2545  4.8168e-07  1.8137e-11  1.1332e-11  1.8591e-06  1.5593e-08 -1.1348e-03  4.3502e+01  9.2462e-03  0:13:58 1455
  2546  4.8168e-07  1.8137e-11  1.1332e-11  1.8589e-06  1.5594e-08 -1.1348e-03  4.3502e+01  9.2462e-03  0:16:01 1454
  2547  4.8168e-07  1.8137e-11  1.1332e-11  1.8591e-06  1.5593e-08 -1.1348e-03  4.3502e+01  9.2462e-03  0:17:39 1453
  2548  4.8168e-07  1.8137e-11  1.1332e-11  1.8589e-06  1.5594e-08 -1.1348e-03  4.3502e+01  9.2462e-03  0:14:06 1452
  2549  4.8168e-07  1.8137e-11  1.1332e-11  1.8591e-06  1.5593e-08 -1.1348e-03  4.3502e+01  9.2462e-03  0:16:07 1451

  iter  continuity  x-velocity  y-velocity           k       omega     lift-co  drag-force     drag-co     time/iter
  2550  4.8168e-07  1.8137e-11  1.1332e-11  1.8589e-06  1.5594e-08 -1.1348e-03  4.3502e+01  9.2462e-03  0:17:43 1450
  2551  4.8168e-07  1.8137e-11  1.1332e-11  1.8591e-06  1.5593e-08 -1.1348e-03  4.3502e+01  9.2462e-03  0:14:10 1449
  2552  4.8168e-07  1.8137e-11  1.1332e-11  1.8589e-06  1.5594e-08 -1.1348e-03  4.3502e+01  9.2462e-03  0:16:09 1448
  2553  4.8168e-07  1.8137e-11  1.1332e-11  1.8591e-06  1.5593e-08 -1.1348e-03  4.3502e+01  9.2462e-03  0:12:55 1447
  2554  4.8168e-07  1.8137e-11  1.1332e-11  1.8589e-06  1.5594e-08 -1.1348e-03  4.3502e+01  9.2462e-03  0:15:08 1446
  2555  4.8168e-07  1.8137e-11  1.1332e-11  1.8591e-06  1.5593e-08 -1.1348e-03  4.3502e+01  9.2462e-03  0:16:55 1445
  2556  4.8168e-07  1.8137e-11  1.1332e-11  1.8589e-06  1.5594e-08 -1.1348e-03  4.3502e+01  9.2462e-03  0:13:32 1444
  2557  4.8168e-07  1.8137e-11  1.1332e-11  1.8591e-06  1.5593e-08 -1.1348e-03  4.3502e+01  9.2462e-03  0:15:37 1443
  2558  4.8168e-07  1.8137e-11  1.1332e-11  1.8589e-06  1.5594e-08 -1.1348e-03  4.3502e+01  9.2462e-03  0:17:18 1442
  2559  4.8168e-07  1.8137e-11  1.1332e-11  1.8591e-06  1.5593e-08 -1.1348e-03  4.3502e+01  9.2462e-03  0:13:50 1441
  2560  4.8168e-07  1.8137e-11  1.1332e-11  1.8589e-06  1.5594e-08 -1.1348e-03  4.3502e+01  9.2462e-03  0:15:51 1440

  iter  continuity  x-velocity  y-velocity           k       omega     lift-co  drag-force     drag-co     time/iter
  2561  4.8168e-07  1.8137e-11  1.1332e-11  1.8591e-06  1.5593e-08 -1.1348e-03  4.3502e+01  9.2462e-03  0:17:28 1439
  2562  4.8168e-07  1.8137e-11  1.1332e-11  1.8589e-06  1.5594e-08 -1.1348e-03  4.3502e+01  9.2462e-03  0:13:58 1438
  2563  4.8168e-07  1.8137e-11  1.1332e-11  1.8591e-06  1.5593e-08 -1.1348e-03  4.3502e+01  9.2462e-03  0:15:57 1437
  2564  4.8168e-07  1.8137e-11  1.1332e-11  1.8589e-06  1.5594e-08 -1.1348e-03  4.3502e+01  9.2462e-03  0:17:33 1436
  2565  4.8168e-07  1.8137e-11  1.1332e-11  1.8591e-06  1.5593e-08 -1.1348e-03  4.3502e+01  9.2462e-03  0:14:01 1435
  2566  4.8168e-07  1.8137e-11  1.1332e-11  1.8589e-06  1.5594e-08 -1.1348e-03  4.3502e+01  9.2462e-03  0:16:00 1434
  2567  4.8168e-07  1.8137e-11  1.1332e-11  1.8591e-06  1.5593e-08 -1.1348e-03  4.3502e+01  9.2462e-03  0:12:47 1433
  2568  4.8168e-07  1.8137e-11  1.1332e-11  1.8589e-06  1.5594e-08 -1.1348e-03  4.3502e+01  9.2462e-03  0:15:00 1432
  2569  4.8168e-07  1.8137e-11  1.1332e-11  1.8591e-06  1.5593e-08 -1.1348e-03  4.3502e+01  9.2462e-03  0:16:45 1431
  2570  4.8168e-07  1.8137e-11  1.1332e-11  1.8589e-06  1.5594e-08 -1.1348e-03  4.3502e+01  9.2462e-03  0:13:24 1430
  2571  4.8168e-07  1.8137e-11  1.1332e-11  1.8591e-06  1.5593e-08 -1.1348e-03  4.3502e+01  9.2462e-03  0:15:28 1429

  iter  continuity  x-velocity  y-velocity           k       omega     lift-co  drag-force     drag-co     time/iter
  2572  4.8168e-07  1.8137e-11  1.1332e-11  1.8589e-06  1.5594e-08 -1.1348e-03  4.3502e+01  9.2462e-03  0:17:08 1428
  2573  4.8168e-07  1.8137e-11  1.1332e-11  1.8591e-06  1.5593e-08 -1.1348e-03  4.3502e+01  9.2462e-03  0:13:42 1427
  2574  4.8168e-07  1.8137e-11  1.1332e-11  1.8589e-06  1.5594e-08 -1.1348e-03  4.3502e+01  9.2462e-03  0:15:42 1426
  2575  4.8168e-07  1.8137e-11  1.1332e-11  1.8591e-06  1.5593e-08 -1.1348e-03  4.3502e+01  9.2462e-03  0:17:18 1425
  2576  4.8168e-07  1.8137e-11  1.1332e-11  1.8589e-06  1.5594e-08 -1.1348e-03  4.3502e+01  9.2462e-03  0:13:50 1424
  2577  4.8168e-07  1.8137e-11  1.1332e-11  1.8591e-06  1.5593e-08 -1.1348e-03  4.3502e+01  9.2462e-03  0:15:48 1423
  2578  4.8168e-07  1.8137e-11  1.1332e-11  1.8589e-06  1.5594e-08 -1.1348e-03  4.3502e+01  9.2462e-03  0:17:22 1422
  2579  4.8168e-07  1.8137e-11  1.1332e-11  1.8591e-06  1.5593e-08 -1.1348e-03  4.3502e+01  9.2462e-03  0:13:53 1421
  2580  4.8168e-07  1.8137e-11  1.1332e-11  1.8589e-06  1.5594e-08 -1.1348e-03  4.3502e+01  9.2462e-03  0:15:50 1420
  2581  4.8168e-07  1.8137e-11  1.1332e-11  1.8591e-06  1.5593e-08 -1.1348e-03  4.3502e+01  9.2462e-03  0:12:40 1419
  2582  4.8168e-07  1.8137e-11  1.1332e-11  1.8589e-06  1.5594e-08 -1.1348e-03  4.3502e+01  9.2462e-03  0:14:51 1418

  iter  continuity  x-velocity  y-velocity           k       omega     lift-co  drag-force     drag-co     time/iter
  2583  4.8168e-07  1.8137e-11  1.1332e-11  1.8591e-06  1.5593e-08 -1.1348e-03  4.3502e+01  9.2462e-03  0:16:36 1417
  2584  4.8168e-07  1.8137e-11  1.1332e-11  1.8589e-06  1.5594e-08 -1.1348e-03  4.3502e+01  9.2462e-03  0:13:16 1416
  2585  4.8168e-07  1.8137e-11  1.1332e-11  1.8591e-06  1.5593e-08 -1.1348e-03  4.3502e+01  9.2462e-03  0:15:19 1415
  2586  4.8168e-07  1.8137e-11  1.1332e-11  1.8589e-06  1.5594e-08 -1.1348e-03  4.3502e+01  9.2462e-03  0:16:58 1414
  2587  4.8168e-07  1.8137e-11  1.1332e-11  1.8591e-06  1.5593e-08 -1.1348e-03  4.3502e+01  9.2462e-03  0:13:34 1413
  2588  4.8168e-07  1.8137e-11  1.1332e-11  1.8589e-06  1.5594e-08 -1.1348e-03  4.3502e+01  9.2462e-03  0:15:33 1412
  2589  4.8168e-07  1.8137e-11  1.1332e-11  1.8591e-06  1.5593e-08 -1.1348e-03  4.3502e+01  9.2462e-03  0:17:08 1411
  2590  4.8168e-07  1.8137e-11  1.1332e-11  1.8589e-06  1.5594e-08 -1.1348e-03  4.3502e+01  9.2462e-03  0:13:42 1410
  2591  4.8168e-07  1.8137e-11  1.1332e-11  1.8591e-06  1.5593e-08 -1.1348e-03  4.3502e+01  9.2462e-03  0:15:39 1409
  2592  4.8168e-07  1.8137e-11  1.1332e-11  1.8589e-06  1.5594e-08 -1.1348e-03  4.3502e+01  9.2462e-03  0:17:12 1408
  2593  4.8168e-07  1.8137e-11  1.1332e-11  1.8591e-06  1.5593e-08 -1.1348e-03  4.3502e+01  9.2462e-03  0:18:26 1407

  iter  continuity  x-velocity  y-velocity           k       omega     lift-co  drag-force     drag-co     time/iter
  2594  4.8168e-07  1.8137e-11  1.1332e-11  1.8589e-06  1.5594e-08 -1.1348e-03  4.3502e+01  9.2462e-03  0:14:45 1406
[...]
  3394  4.8168e-07  1.8137e-11  1.1332e-11  1.8589e-06  1.5594e-08 -1.1348e-03  4.3502e+01  9.2462e-03  0:07:05  606
  3395  4.8168e-07  1.8137e-11  1.1332e-11  1.8591e-06  1.5593e-08 -1.1348e-03  4.3502e+01  9.2462e-03  0:05:40  605
  3396  4.8168e-07  1.8137e-11  1.1332e-11  1.8589e-06  1.5594e-08 -1.1348e-03  4.3502e+01  9.2462e-03  0:06:32  604
  3397  4.8168e-07  1.8137e-11  1.1332e-11  1.8591e-06  1.5593e-08 -1.1348e-03  4.3502e+01  9.2462e-03  0:07:14  603
  3398  4.8168e-07  1.8137e-11  1.1332e-11  1.8589e-06  1.5594e-08 -1.1348e-03  4.3502e+01  9.2462e-03  0:05:46  602
  3399  4.8168e-07  1.8137e-11  1.1332e-11  1.8591e-06  1.5593e-08 -1.1348e-03  4.3502e+01  9.2462e-03  0:06:37  601
  3400  4.8168e-07  1.8137e-11  1.1332e-11  1.8589e-06  1.5594e-08 -1.1348e-03  4.3502e+01  9.2462e-03  0:07:17  600
  3401  4.8168e-07  1.8137e-11  1.1332e-11  1.8591e-06  1.5593e-08 -1.1348e-03  4.3502e+01  9.2462e-03  0:05:49  599
  3402  4.8168e-07  1.8137e-11  1.1332e-11  1.8589e-06  1.5594e-08 -1.1348e-03  4.3502e+01  9.2462e-03  0:06:38  598
  3403  4.8168e-07  1.8137e-11  1.1332e-11  1.8591e-06  1.5593e-08 -1.1348e-03  4.3502e+01  9.2462e-03  0:05:18  597

  iter  continuity  x-velocity  y-velocity           k       omega     lift-co  drag-force     drag-co     time/iter
  3404  4.8168e-07  1.8137e-11  1.1332e-11  1.8589e-06  1.5594e-08 -1.1348e-03  4.3502e+01  9.2462e-03  0:06:13  596
  3405  4.8168e-07  1.8137e-11  1.1332e-11  1.8591e-06  1.5593e-08 -1.1348e-03  4.3502e+01  9.2462e-03  0:06:57  595
  3406  4.8168e-07  1.8137e-11  1.1332e-11  1.8589e-06  1.5594e-08 -1.1348e-03  4.3502e+01  9.2462e-03  0:05:33  594
  3407  4.8168e-07  1.8137e-11  1.1332e-11  1.8591e-06  1.5593e-08 -1.1348e-03  4.3502e+01  9.2462e-03  0:06:25  593
  3408  4.8168e-07  1.8137e-11  1.1332e-11  1.8589e-06  1.5594e-08 -1.1348e-03  4.3502e+01  9.2462e-03  0:07:06  592
  3409  4.8168e-07  1.8137e-11  1.1332e-11  1.8591e-06  1.5593e-08 -1.1348e-03  4.3502e+01  9.2462e-03  0:05:40  591
  3410  4.8168e-07  1.8137e-11  1.1332e-11  1.8589e-06  1.5594e-08 -1.1348e-03  4.3502e+01  9.2462e-03  0:06:29  590
  3411  4.8168e-07  1.8137e-11  1.1332e-11  1.8591e-06  1.5593e-08 -1.1348e-03  4.3502e+01  9.2462e-03  0:07:09  589
  3412  4.8168e-07  1.8137e-11  1.1332e-11  1.8589e-06  1.5594e-08 -1.1348e-03  4.3502e+01  9.2462e-03  0:05:42  588
  3413  4.8168e-07  1.8137e-11  1.1332e-11  1.8591e-06  1.5593e-08 -1.1348e-03  4.3502e+01  9.2462e-03  0:06:31  587
  3414  4.8168e-07  1.8137e-11  1.1332e-11  1.8589e-06  1.5594e-08 -1.1348e-03  4.3502e+01  9.2462e-03  0:05:12  586

  iter  continuity  x-velocity  y-velocity           k       omega     lift-co  drag-force     drag-co     time/iter
  3415  4.8168e-07  1.8137e-11  1.1332e-11  1.8591e-06  1.5593e-08 -1.1348e-03  4.3502e+01  9.2462e-03  0:06:06  585
  3416  4.8168e-07  1.8137e-11  1.1332e-11  1.8589e-06  1.5594e-08 -1.1348e-03  4.3502e+01  9.2462e-03  0:06:49  584
  3417  4.8168e-07  1.8137e-11  1.1332e-11  1.8591e-06  1.5593e-08 -1.1348e-03  4.3502e+01  9.2462e-03  0:05:27  583
  3418  4.8168e-07  1.8137e-11  1.1332e-11  1.8589e-06  1.5594e-08 -1.1348e-03  4.3502e+01  9.2462e-03  0:06:18  582
  3419  4.8168e-07  1.8137e-11  1.1332e-11  1.8591e-06  1.5593e-08 -1.1348e-03  4.3502e+01  9.2462e-03  0:06:58  581
  3420  4.8168e-07  1.8137e-11  1.1332e-11  1.8589e-06  1.5594e-08 -1.1348e-03  4.3502e+01  9.2462e-03  0:05:34  580
  3421  4.8168e-07  1.8137e-11  1.1332e-11  1.8591e-06  1.5593e-08 -1.1348e-03  4.3502e+01  9.2462e-03  0:06:22  579
  3422  4.8168e-07  1.8137e-11  1.1332e-11  1.8589e-06  1.5594e-08 -1.1348e-03  4.3502e+01  9.2462e-03  0:07:01  578
  3423  4.8168e-07  1.8137e-11  1.1332e-11  1.8591e-06  1.5593e-08 -1.1348e-03  4.3502e+01  9.2462e-03  0:05:36  577
  3424  4.8168e-07  1.8137e-11  1.1332e-11  1.8589e-06  1.5594e-08 -1.1348e-03  4.3502e+01  9.2462e-03  0:06:24  576
  3425  4.8168e-07  1.8137e-11  1.1332e-11  1.8591e-06  1.5593e-08 -1.1348e-03  4.3502e+01  9.2462e-03  0:07:01  575

  iter  continuity  x-velocity  y-velocity           k       omega     lift-co  drag-force     drag-co     time/iter
  3426  4.8168e-07  1.8137e-11  1.1332e-11  1.8589e-06  1.5594e-08 -1.1348e-03  4.3502e+01  9.2462e-03  0:05:36  574
  3427  4.8168e-07  1.8137e-11  1.1332e-11  1.8591e-06  1.5593e-08 -1.1348e-03  4.3502e+01  9.2462e-03  0:06:23  573
  3428  4.8168e-07  1.8137e-11  1.1332e-11  1.8589e-06  1.5594e-08 -1.1348e-03  4.3502e+01  9.2462e-03  0:07:01  572
  3429  4.8168e-07  1.8137e-11  1.1332e-11  1.8591e-06  1.5593e-08 -1.1348e-03  4.3502e+01  9.2462e-03  0:05:36  571
  3430  4.8168e-07  1.8137e-11  1.1332e-11  1.8589e-06  1.5594e-08 -1.1348e-03  4.3502e+01  9.2462e-03  0:06:22  570
  3431  4.8168e-07  1.8137e-11  1.1332e-11  1.8591e-06  1.5593e-08 -1.1348e-03  4.3502e+01  9.2462e-03  0:06:59  569
  3432  4.8168e-07  1.8137e-11  1.1332e-11  1.8589e-06  1.5594e-08 -1.1348e-03  4.3502e+01  9.2462e-03  0:05:35  568
  3433  4.8168e-07  1.8137e-11  1.1332e-11  1.8591e-06  1.5593e-08 -1.1348e-03  4.3502e+01  9.2462e-03  0:06:21  567
  3434  4.8168e-07  1.8137e-11  1.1332e-11  1.8589e-06  1.5594e-08 -1.1348e-03  4.3502e+01  9.2462e-03  0:05:04  566
  3435  4.8168e-07  1.8137e-11  1.1332e-11  1.8591e-06  1.5593e-08 -1.1348e-03  4.3502e+01  9.2462e-03  0:05:56  565
  3436  4.8168e-07  1.8137e-11  1.1332e-11  1.8589e-06  1.5594e-08 -1.1348e-03  4.3502e+01  9.2462e-03  0:06:37  564

  iter  continuity  x-velocity  y-velocity           k       omega     lift-co  drag-force     drag-co     time/iter
  3437  4.8168e-07  1.8137e-11  1.1332e-11  1.8591e-06  1.5593e-08 -1.1348e-03  4.3502e+01  9.2462e-03  0:05:17  563
  3438  4.8168e-07  1.8137e-11  1.1332e-11  1.8589e-06  1.5594e-08 -1.1348e-03  4.3502e+01  9.2462e-03  0:06:06  562
  3439  4.8168e-07  1.8137e-11  1.1332e-11  1.8591e-06  1.5593e-08 -1.1348e-03  4.3502e+01  9.2462e-03  0:06:44  561
  3440  4.8168e-07  1.8137e-11  1.1332e-11  1.8589e-06  1.5594e-08 -1.1348e-03  4.3502e+01  9.2462e-03  0:05:23  560
  3441  4.8168e-07  1.8137e-11  1.1332e-11  1.8591e-06  1.5593e-08 -1.1348e-03  4.3502e+01  9.2462e-03  0:06:09  559
  3442  4.8168e-07  1.8137e-11  1.1332e-11  1.8589e-06  1.5594e-08 -1.1348e-03  4.3502e+01  9.2462e-03  0:04:55  558
  3443  4.8168e-07  1.8137e-11  1.1332e-11  1.8591e-06  1.5593e-08 -1.1348e-03  4.3502e+01  9.2462e-03  0:05:47  557
  3444  4.8168e-07  1.8137e-11  1.1332e-11  1.8589e-06  1.5594e-08 -1.1348e-03  4.3502e+01  9.2462e-03  0:06:28  556
  3445  4.8168e-07  1.8137e-11  1.1332e-11  1.8591e-06  1.5593e-08 -1.1348e-03  4.3502e+01  9.2462e-03  0:07:01  555
  3446  4.8168e-07  1.8137e-11  1.1332e-11  1.8589e-06  1.5594e-08 -1.1348e-03  4.3502e+01  9.2462e-03  0:05:36  554
  3447  4.8168e-07  1.8137e-11  1.1332e-11  1.8591e-06  1.5593e-08 -1.1348e-03  4.3502e+01  9.2462e-03  0:06:19  553

  iter  continuity  x-velocity  y-velocity           k       omega     lift-co  drag-force     drag-co     time/iter
  3448  4.8168e-07  1.8137e-11  1.1332e-11  1.8589e-06  1.5594e-08 -1.1348e-03  4.3502e+01  9.2462e-03  0:06:53  552
  3449  4.8168e-07  1.8137e-11  1.1332e-11  1.8591e-06  1.5593e-08 -1.1348e-03  4.3502e+01  9.2462e-03  0:05:30  551
  3450  4.8168e-07  1.8137e-11  1.1332e-11  1.8589e-06  1.5594e-08 -1.1348e-03  4.3502e+01  9.2462e-03  0:06:13  550
  3451  4.8168e-07  1.8137e-11  1.1332e-11  1.8591e-06  1.5593e-08 -1.1348e-03  4.3502e+01  9.2462e-03  0:06:48  549
  3452  4.8168e-07  1.8137e-11  1.1332e-11  1.8589e-06  1.5594e-08 -1.1348e-03  4.3502e+01  9.2462e-03  0:05:26  548
  3453  4.8168e-07  1.8137e-11  1.1332e-11  1.8591e-06  1.5593e-08 -1.1348e-03  4.3502e+01  9.2462e-03  0:06:10  547
  3454  4.8168e-07  1.8137e-11  1.1332e-11  1.8589e-06  1.5594e-08 -1.1348e-03  4.3502e+01  9.2462e-03  0:06:44  546
  3455  4.8168e-07  1.8137e-11  1.1332e-11  1.8591e-06  1.5593e-08 -1.1348e-03  4.3502e+01  9.2462e-03  0:05:23  545
  3456  4.8168e-07  1.8137e-11  1.1332e-11  1.8589e-06  1.5594e-08 -1.1348e-03  4.3502e+01  9.2462e-03  0:06:07  544
  3457  4.8168e-07  1.8137e-11  1.1332e-11  1.8591e-06  1.5593e-08 -1.1348e-03  4.3502e+01  9.2462e-03  0:04:53  543
  3458  4.8168e-07  1.8137e-11  1.1332e-11  1.8589e-06  1.5594e-08 -1.1348e-03  4.3502e+01  9.2462e-03  0:05:42  542

  iter  continuity  x-velocity  y-velocity           k       omega     lift-co  drag-force     drag-co     time/iter
  3459  4.8168e-07  1.8137e-11  1.1332e-11  1.8591e-06  1.5593e-08 -1.1348e-03  4.3502e+01  9.2462e-03  0:06:21  541
  3460  4.8168e-07  1.8137e-11  1.1332e-11  1.8589e-06  1.5594e-08 -1.1348e-03  4.3502e+01  9.2462e-03  0:05:05  540
  3461  4.8168e-07  1.8137e-11  1.1332e-11  1.8591e-06  1.5593e-08 -1.1348e-03  4.3502e+01  9.2462e-03  0:05:51  539
  3462  4.8168e-07  1.8137e-11  1.1332e-11  1.8589e-06  1.5594e-08 -1.1348e-03  4.3502e+01  9.2462e-03  0:06:28  538
  3463  4.8168e-07  1.8137e-11  1.1332e-11  1.8591e-06  1.5593e-08 -1.1348e-03  4.3502e+01  9.2462e-03  0:05:10  537
  3464  4.8168e-07  1.8137e-11  1.1332e-11  1.8589e-06  1.5594e-08 -1.1348e-03  4.3502e+01  9.2462e-03  0:05:55  536
  3465  4.8168e-07  1.8137e-11  1.1332e-11  1.8591e-06  1.5593e-08 -1.1348e-03  4.3502e+01  9.2462e-03  0:06:30  535
  3466  4.8168e-07  1.8137e-11  1.1332e-11  1.8589e-06  1.5594e-08 -1.1348e-03  4.3502e+01  9.2462e-03  0:05:11  534
  3467  4.8168e-07  1.8137e-11  1.1332e-11  1.8591e-06  1.5593e-08 -1.1348e-03  4.3502e+01  9.2462e-03  0:05:55  533
  3468  4.8168e-07  1.8137e-11  1.1332e-11  1.8589e-06  1.5594e-08 -1.1348e-03  4.3502e+01  9.2462e-03  0:04:44  532
  3469  4.8168e-07  1.8137e-11  1.1332e-11  1.8591e-06  1.5593e-08 -1.1348e-03  4.3502e+01  9.2462e-03  0:05:33  531

  iter  continuity  x-velocity  y-velocity           k       omega     lift-co  drag-force     drag-co     time/iter
  3470  4.8168e-07  1.8137e-11  1.1332e-11  1.8589e-06  1.5594e-08 -1.1348e-03  4.3502e+01  9.2462e-03  0:06:12  530
  3471  4.8168e-07  1.8137e-11  1.1332e-11  1.8591e-06  1.5593e-08 -1.1348e-03  4.3502e+01  9.2462e-03  0:04:57  529
  3472  4.8168e-07  1.8137e-11  1.1332e-11  1.8589e-06  1.5594e-08 -1.1348e-03  4.3502e+01  9.2462e-03  0:05:43  528
  3473  4.8168e-07  1.8137e-11  1.1332e-11  1.8591e-06  1.5593e-08 -1.1348e-03  4.3502e+01  9.2462e-03  0:06:19  527
  3474  4.8168e-07  1.8137e-11  1.1332e-11  1.8589e-06  1.5594e-08 -1.1348e-03  4.3502e+01  9.2462e-03  0:05:03  526
  3475  4.8168e-07  1.8137e-11  1.1332e-11  1.8591e-06  1.5593e-08 -1.1348e-03  4.3502e+01  9.2462e-03  0:05:47  525
  3476  4.8168e-07  1.8137e-11  1.1332e-11  1.8589e-06  1.5594e-08 -1.1348e-03  4.3502e+01  9.2462e-03  0:04:37  524
  3477  4.8168e-07  1.8137e-11  1.1332e-11  1.8591e-06  1.5593e-08 -1.1348e-03  4.3502e+01  9.2462e-03  0:05:26  523
  3478  4.8168e-07  1.8137e-11  1.1332e-11  1.8589e-06  1.5594e-08 -1.1348e-03  4.3502e+01  9.2462e-03  0:06:04  522
  3479  4.8168e-07  1.8137e-11  1.1332e-11  1.8591e-06  1.5593e-08 -1.1348e-03  4.3502e+01  9.2462e-03  0:04:51  521
  3480  4.8168e-07  1.8137e-11  1.1332e-11  1.8589e-06  1.5594e-08 -1.1348e-03  4.3502e+01  9.2462e-03  0:05:36  520

  iter  continuity  x-velocity  y-velocity           k       omega     lift-co  drag-force     drag-co     time/iter
  3481  4.8168e-07  1.8137e-11  1.1332e-11  1.8591e-06  1.5593e-08 -1.1348e-03  4.3502e+01  9.2462e-03  0:06:12  519
  3482  4.8168e-07  1.8137e-11  1.1332e-11  1.8589e-06  1.5594e-08 -1.1348e-03  4.3502e+01  9.2462e-03  0:04:57  518
  3483  4.8168e-07  1.8137e-11  1.1332e-11  1.8591e-06  1.5593e-08 -1.1348e-03  4.3502e+01  9.2462e-03  0:05:41  517
  3484  4.8168e-07  1.8137e-11  1.1332e-11  1.8589e-06  1.5594e-08 -1.1348e-03  4.3502e+01  9.2462e-03  0:06:15  516
  3485  4.8168e-07  1.8137e-11  1.1332e-11  1.8591e-06  1.5593e-08 -1.1348e-03  4.3502e+01  9.2462e-03  0:05:00  515
  3486  4.8168e-07  1.8137e-11  1.1332e-11  1.8589e-06  1.5594e-08 -1.1348e-03  4.3502e+01  9.2462e-03  0:05:42  514
  3487  4.8168e-07  1.8137e-11  1.1332e-11  1.8591e-06  1.5593e-08 -1.1348e-03  4.3502e+01  9.2462e-03  0:06:16  513
  3488  4.8168e-07  1.8137e-11  1.1332e-11  1.8589e-06  1.5594e-08 -1.1348e-03  4.3502e+01  9.2462e-03  0:05:00  512
  3489  4.8168e-07  1.8137e-11  1.1332e-11  1.8591e-06  1.5593e-08 -1.1348e-03  4.3502e+01  9.2462e-03  0:05:42  511
  3490  4.8168e-07  1.8137e-11  1.1332e-11  1.8589e-06  1.5594e-08 -1.1348e-03  4.3502e+01  9.2462e-03  0:04:33  510
  3491  4.8168e-07  1.8137e-11  1.1332e-11  1.8591e-06  1.5593e-08 -1.1348e-03  4.3502e+01  9.2462e-03  0:05:20  509

  iter  continuity  x-velocity  y-velocity           k       omega     lift-co  drag-force     drag-co     time/iter
  3492  4.8168e-07  1.8137e-11  1.1332e-11  1.8589e-06  1.5594e-08 -1.1348e-03  4.3502e+01  9.2462e-03  0:05:57  508
  3493  4.8168e-07  1.8137e-11  1.1332e-11  1.8591e-06  1.5593e-08 -1.1348e-03  4.3502e+01  9.2462e-03  0:04:45  507
  3494  4.8168e-07  1.8137e-11  1.1332e-11  1.8589e-06  1.5594e-08 -1.1348e-03  4.3502e+01  9.2462e-03  0:05:29  506
  3495  4.8168e-07  1.8137e-11  1.1332e-11  1.8591e-06  1.5593e-08 -1.1348e-03  4.3502e+01  9.2462e-03  0:06:03  505
  3496  4.8168e-07  1.8137e-11  1.1332e-11  1.8589e-06  1.5594e-08 -1.1348e-03  4.3502e+01  9.2462e-03  0:04:50  504
  3497  4.8168e-07  1.8137e-11  1.1332e-11  1.8591e-06  1.5593e-08 -1.1348e-03  4.3502e+01  9.2462e-03  0:05:32  503
  3498  4.8168e-07  1.8137e-11  1.1332e-11  1.8589e-06  1.5594e-08 -1.1348e-03  4.3502e+01  9.2462e-03  0:04:25  502
  3499  4.8168e-07  1.8137e-11  1.1332e-11  1.8591e-06  1.5593e-08 -1.1348e-03  4.3502e+01  9.2462e-03  0:05:12  501
  3500  4.8168e-07  1.8137e-11  1.1332e-11  1.8589e-06  1.5594e-08 -1.1348e-03  4.3502e+01  9.2462e-03  0:05:49  500
  3501  4.8168e-07  1.8137e-11  1.1332e-11  1.8591e-06  1.5593e-08 -1.1348e-03  4.3502e+01  9.2462e-03  0:04:39  499
  3502  4.8168e-07  1.8137e-11  1.1332e-11  1.8589e-06  1.5594e-08 -1.1348e-03  4.3502e+01  9.2462e-03  0:05:22  498

  iter  continuity  x-velocity  y-velocity           k       omega     lift-co  drag-force     drag-co     time/iter
  3503  4.8168e-07  1.8137e-11  1.1332e-11  1.8591e-06  1.5593e-08 -1.1348e-03  4.3502e+01  9.2462e-03  0:05:57  497
  3504  4.8168e-07  1.8137e-11  1.1332e-11  1.8589e-06  1.5594e-08 -1.1348e-03  4.3502e+01  9.2462e-03  0:04:45  496
  3505  4.8168e-07  1.8137e-11  1.1332e-11  1.8591e-06  1.5593e-08 -1.1348e-03  4.3502e+01  9.2462e-03  0:05:26  495
  3506  4.8168e-07  1.8137e-11  1.1332e-11  1.8589e-06  1.5594e-08 -1.1348e-03  4.3502e+01  9.2462e-03  0:05:59  494
  3507  4.8168e-07  1.8137e-11  1.1332e-11  1.8591e-06  1.5593e-08 -1.1348e-03  4.3502e+01  9.2462e-03  0:04:47  493
  3508  4.8168e-07  1.8137e-11  1.1332e-11  1.8589e-06  1.5594e-08 -1.1348e-03  4.3502e+01  9.2462e-03  0:05:27  492
  3509  4.8168e-07  1.8137e-11  1.1332e-11  1.8591e-06  1.5593e-08 -1.1348e-03  4.3502e+01  9.2462e-03  0:04:21  491
  3510  4.8168e-07  1.8137e-11  1.1332e-11  1.8589e-06  1.5594e-08 -1.1348e-03  4.3502e+01  9.2462e-03  0:05:07  490
  3511  4.8168e-07  1.8137e-11  1.1332e-11  1.8591e-06  1.5593e-08 -1.1348e-03  4.3502e+01  9.2462e-03  0:05:43  489
  3512  4.8168e-07  1.8137e-11  1.1332e-11  1.8589e-06  1.5594e-08 -1.1348e-03  4.3502e+01  9.2462e-03  0:04:34  488
  3513  4.8168e-07  1.8137e-11  1.1332e-11  1.8591e-06  1.5593e-08 -1.1348e-03  4.3502e+01  9.2462e-03  0:05:16  487

  iter  continuity  x-velocity  y-velocity           k       omega     lift-co  drag-force     drag-co     time/iter
  3514  4.8168e-07  1.8137e-11  1.1332e-11  1.8589e-06  1.5594e-08 -1.1348e-03  4.3502e+01  9.2462e-03  0:05:49  486
  3515  4.8168e-07  1.8137e-11  1.1332e-11  1.8591e-06  1.5593e-08 -1.1348e-03  4.3502e+01  9.2462e-03  0:04:39  485
  3516  4.8168e-07  1.8137e-11  1.1332e-11  1.8589e-06  1.5594e-08 -1.1348e-03  4.3502e+01  9.2462e-03  0:05:19  484
  3517  4.8168e-07  1.8137e-11  1.1332e-11  1.8591e-06  1.5593e-08 -1.1348e-03  4.3502e+01  9.2462e-03  0:05:52  483
  3518  4.8168e-07  1.8137e-11  1.1332e-11  1.8589e-06  1.5594e-08 -1.1348e-03  4.3502e+01  9.2462e-03  0:06:17  482
  3519  4.8168e-07  1.8137e-11  1.1332e-11  1.8591e-06  1.5593e-08 -1.1348e-03  4.3502e+01  9.2462e-03  0:05:01  481
  3520  4.8168e-07  1.8137e-11  1.1332e-11  1.8589e-06  1.5594e-08 -1.1348e-03  4.3502e+01  9.2462e-03  0:05:36  480
  3521  4.8168e-07  1.8137e-11  1.1332e-11  1.8591e-06  1.5593e-08 -1.1348e-03  4.3502e+01  9.2462e-03  0:06:04  479
  3522  4.8168e-07  1.8137e-11  1.1332e-11  1.8589e-06  1.5594e-08 -1.1348e-03  4.3502e+01  9.2462e-03  0:04:51  478
  3523  4.8168e-07  1.8137e-11  1.1332e-11  1.8591e-06  1.5593e-08 -1.1348e-03  4.3502e+01  9.2462e-03  0:05:28  477
  3524  4.8168e-07  1.8137e-11  1.1332e-11  1.8589e-06  1.5594e-08 -1.1348e-03  4.3502e+01  9.2462e-03  0:04:22  476

  iter  continuity  x-velocity  y-velocity           k       omega     lift-co  drag-force     drag-co     time/iter
  3525  4.8168e-07  1.8137e-11  1.1332e-11  1.8591e-06  1.5593e-08 -1.1348e-03  4.3502e+01  9.2462e-03  0:05:04  475
  3526  4.8168e-07  1.8137e-11  1.1332e-11  1.8589e-06  1.5594e-08 -1.1348e-03  4.3502e+01  9.2462e-03  0:05:37  474
  3527  4.8168e-07  1.8137e-11  1.1332e-11  1.8591e-06  1.5593e-08 -1.1348e-03  4.3502e+01  9.2462e-03  0:04:29  473
  3528  4.8168e-07  1.8137e-11  1.1332e-11  1.8589e-06  1.5594e-08 -1.1348e-03  4.3502e+01  9.2462e-03  0:05:09  472
  3529  4.8168e-07  1.8137e-11  1.1332e-11  1.8591e-06  1.5593e-08 -1.1348e-03  4.3502e+01  9.2462e-03  0:05:41  471
  3530  4.8168e-07  1.8137e-11  1.1332e-11  1.8589e-06  1.5594e-08 -1.1348e-03  4.3502e+01  9.2462e-03  0:04:32  470
  3531  4.8168e-07  1.8137e-11  1.1332e-11  1.8591e-06  1.5593e-08 -1.1348e-03  4.3502e+01  9.2462e-03  0:05:11  469
  3532  4.8168e-07  1.8137e-11  1.1332e-11  1.8589e-06  1.5594e-08 -1.1348e-03  4.3502e+01  9.2462e-03  0:05:42  468
  3533  4.8168e-07  1.8137e-11  1.1332e-11  1.8591e-06  1.5593e-08 -1.1348e-03  4.3502e+01  9.2462e-03  0:04:33  467
  3534  4.8168e-07  1.8137e-11  1.1332e-11  1.8589e-06  1.5594e-08 -1.1348e-03  4.3502e+01  9.2462e-03  0:05:11  466
  3535  4.8168e-07  1.8137e-11  1.1332e-11  1.8591e-06  1.5593e-08 -1.1348e-03  4.3502e+01  9.2462e-03  0:05:41  465

  iter  continuity  x-velocity  y-velocity           k       omega     lift-co  drag-force     drag-co     time/iter
  3536  4.8168e-07  1.8137e-11  1.1332e-11  1.8589e-06  1.5594e-08 -1.1348e-03  4.3502e+01  9.2462e-03  0:04:33  464
  3537  4.8168e-07  1.8137e-11  1.1332e-11  1.8591e-06  1.5593e-08 -1.1348e-03  4.3502e+01  9.2462e-03  0:05:10  463
  3538  4.8168e-07  1.8137e-11  1.1332e-11  1.8589e-06  1.5594e-08 -1.1348e-03  4.3502e+01  9.2462e-03  0:04:08  462
  3539  4.8168e-07  1.8137e-11  1.1332e-11  1.8591e-06  1.5593e-08 -1.1348e-03  4.3502e+01  9.2462e-03  0:04:50  461
  3540  4.8168e-07  1.8137e-11  1.1332e-11  1.8589e-06  1.5594e-08 -1.1348e-03  4.3502e+01  9.2462e-03  0:05:23  460
  3541  4.8168e-07  1.8137e-11  1.1332e-11  1.8591e-06  1.5593e-08 -1.1348e-03  4.3502e+01  9.2462e-03  0:05:50  459
  3542  4.8168e-07  1.8137e-11  1.1332e-11  1.8589e-06  1.5594e-08 -1.1348e-03  4.3502e+01  9.2462e-03  0:04:39  458
  3543  4.8168e-07  1.8137e-11  1.1332e-11  1.8591e-06  1.5593e-08 -1.1348e-03  4.3502e+01  9.2462e-03  0:05:14  457
  3544  4.8168e-07  1.8137e-11  1.1332e-11  1.8589e-06  1.5594e-08 -1.1348e-03  4.3502e+01  9.2462e-03  0:05:42  456
  3545  4.8168e-07  1.8137e-11  1.1332e-11  1.8591e-06  1.5593e-08 -1.1348e-03  4.3502e+01  9.2462e-03  0:04:33  455
  3546  4.8168e-07  1.8137e-11  1.1332e-11  1.8589e-06  1.5594e-08 -1.1348e-03  4.3502e+01  9.2462e-03  0:05:09  454

  iter  continuity  x-velocity  y-velocity           k       omega     lift-co  drag-force     drag-co     time/iter
  3547  4.8168e-07  1.8137e-11  1.1332e-11  1.8591e-06  1.5593e-08 -1.1348e-03  4.3502e+01  9.2462e-03  0:05:37  453
  3548  4.8168e-07  1.8137e-11  1.1332e-11  1.8589e-06  1.5594e-08 -1.1348e-03  4.3502e+01  9.2462e-03  0:04:29  452
