Transcript Start Time:  13:06:18, 22 Oct 2024 E. Australia Standard Time 
Current Directory: "C:\Users\n11309270\OneDrive - Queensland University of Technology\Y3 S2\EGH423-CFD Assignment\Part 1\Cross Flow Mesh"

Build Time: Nov 22 2023 10:34:35 EST 
Executable Path: C:/PROGRA~1/ANSYSI~1/v241/fluent/ntbin/win64/fluent.exe

---------------------------------------------------------------------------------------
ID    Hostname        Core  O.S.         PID   Vendor                                 
---------------------------------------------------------------------------------------
n0*   LAB-GPV200-239  1/20  Windows-x64  3548  12th Gen Intel(R) Core(TM) i7-12700    
host  LAB-GPV200-239        Windows-x64  8032  12th Gen Intel(R) Core(TM) i7-12700    

MPI Option Selected: intel
Selected system interconnect: default
---------------------------------------------------------------------------------------

Cortex Process ID: 18520 
License Server Path: 1055@ansys-lics.qut.edu.au 
Note: Rank = 0: Process affinity not being set (6).
Reading setting file in cache: "C:\Users\n11309270\OneDrive - Queensland University of Technology\Y3 S2\EGH423-CFD Assignment\Part 1\Cross Flow Mesh\CrossFlowMesh_files\dp0\FFF-2\Fluent\FFF.1.set"
Reading "C:\Users\n11309270\OneDrive - Queensland University of Technology\Y3 S2\EGH423-CFD Assignment\Part 1\Cross Flow Mesh\CrossFlowMesh_files\dp0\FFF-2\MECH\FFF-2.1.msh"...
Buffering for file scan...

   13081 nodes, binary.
     706 nodes, binary.
   26209 2D interior faces, zone  1, binary.
     306 2D interior faces, zone  2, binary.
     118 2D velocity-inlet faces, zone  6, binary.
     118 2D pressure-outlet faces, zone  7, binary.
     270 2D wall faces, zone  8, binary.
     200 2D wall faces, zone  9, binary.
   13434 quadrilateral cells, zone  3, binary.



Following contexts active in the case file have been de-activated because of their current context control conditions:
"coupled-pseudo-transient"

Building...
     mesh
     materials,
     interface,
     domains,
	mixture
     zones,
	body
	walls
	outlet
	inlet
	fluid-part-surface_body
	part-surface_body
	interior-part-surface_bodySetting fluid-part-surface_body (mixture) ... Done.
 Setting zone id of fluid-part-surface_body to 3.
 Setting zone id of interior-part-surface_body to 1.
 Setting zone id of part-surface_body to 2.
 Setting zone id of inlet to 6.
 Setting zone id of outlet to 7.
 Setting zone id of walls to 8.
 Setting zone id of body to 9.
Done.
Setting fluid-part-surface_body (mixture) ... Done.
Setting interior-part-surface_body (mixture) ... Done.
Setting part-surface_body (mixture) ... Done.
Setting inlet (mixture) ... Done.
Setting outlet (mixture) ... Done.
Setting walls (mixture) ... Done.
Setting body (mixture) ... Done.

     parallel,
Done.

Preparing mesh for display...
Done.

Setting Post Processing and Surfaces information ...	 Done.
"Updating Setup cell..."
"Updating Solution cell..."
Initialization based on settings...

Initialize using the hybrid initialization method.

Checking case topology... 
-This case has both inlets & outlets 
-Pressure information is not available at the boundaries.
 Case will be initialized with constant pressure

	iter		scalar-0

	1		1.000000e+00
	2		1.351868e-05
	3		2.976002e-06
	4		9.614705e-07
	5		3.362635e-07
	6		1.162408e-07
	7		4.218773e-08
	8		1.493507e-08
	9		5.539356e-09
	10		2.043901e-09

Hybrid initialization is done.
Fast-loading "C:\PROGRA~1\ANSYSI~1\v241\fluent\fluent24.1.0\\addons\afd\lib\hdfio.bin"
Done.

Writing to LAB-GPV200-239:"C:\Users\n11309270\OneDrive - Queensland University of Technology\Y3 S2\EGH423-CFD Assignment\Part 1\Cross Flow Mesh\CrossFlowMesh_files\dp0\FFF-2\Fluent\FFF-2.1-Setup-Output.cas.h5" in NODE0 mode and compression level 1 ...
Grouping cells for Laplace smoothing ...
       13434 cells,     1 zone  ...
       27221 faces,     6 zones ...
       13787 nodes,     1 zone  ...
  Done.
Done.

  iter  continuity  x-velocity  y-velocity     drag-co     time/iter
     1  1.0000e+00  7.5045e-03  8.0562e-03  7.9299e+02  0:00:00 4999
     2  1.0000e+00  3.5277e-03  3.5790e-03  1.0869e+03  1:23:18 4998
     3  1.0000e+00  2.4641e-03  2.1565e-03  1.2568e+03  1:06:38 4997
     4  1.0000e+00  2.0689e-03  1.4999e-03  1.5251e+03  0:53:17 4996
     5  1.0000e+00  2.1588e-03  1.2920e-03  1.8866e+03  0:42:37 4995
     6  1.0596e+00  2.4577e-03  1.4053e-03  2.3474e+03  0:34:06 4994
     7  1.2314e+00  2.8792e-03  1.6072e-03  2.7631e+03  0:27:16 4993
     8  1.4661e+00  3.1361e-03  1.6451e-03  2.9922e+03  0:21:49 4992
     9  1.5792e+00  3.1732e-03  1.4901e-03  3.0278e+03  0:17:27 4991
    10  1.5994e+00  2.9482e-03  1.2749e-03  2.9749e+03  0:13:57 4990
    11  1.5780e+00  2.6349e-03  1.0933e-03  2.8979e+03  0:11:10 4989

  iter  continuity  x-velocity  y-velocity     drag-co     time/iter
    12  1.5345e+00  2.4194e-03  9.5540e-04  2.8111e+03  0:08:56 4988
    13  1.4585e+00  2.2403e-03  8.1058e-04  2.7356e+03  0:07:08 4987
    14  1.3958e+00  2.1211e-03  7.3458e-04  2.6780e+03  0:22:20 4986
    15  1.3578e+00  2.0114e-03  6.8211e-04  2.6388e+03  0:17:52 4985
    16  1.3526e+00  1.9319e-03  6.5655e-04  2.6118e+03  0:14:17 4984
    17  1.3588e+00  1.8557e-03  6.3991e-04  2.5910e+03  0:11:26 4983
    18  1.3890e+00  1.7926e-03  6.3006e-04  2.5733e+03  0:09:08 4982
    19  1.4199e+00  1.7294e-03  6.1492e-04  2.5577e+03  0:07:19 4981
    20  1.4686e+00  1.6632e-03  6.0958e-04  2.5434e+03  0:05:51 4980
    21  1.5266e+00  1.6029e-03  6.0465e-04  2.5327e+03  0:04:41 4979
    22  1.5797e+00  1.5595e-03  6.0455e-04  2.5259e+03  0:03:44 4978

  iter  continuity  x-velocity  y-velocity     drag-co     time/iter
    23  1.6619e+00  1.5479e-03  6.1427e-04  2.5232e+03  0:03:00 4977
    24  1.7531e+00  1.5793e-03  6.3914e-04  2.5245e+03  0:02:24 4976
    25  1.8922e+00  1.6584e-03  6.8464e-04  2.5311e+03  0:01:55 4975
    26  2.0463e+00  1.8170e-03  7.5279e-04  2.5405e+03  0:01:32 4974
    27  2.2631e+00  1.9995e-03  8.1931e-04  2.5530e+03  0:01:13 4973
    28  2.5227e+00  2.1481e-03  8.6560e-04  2.5674e+03  0:17:33 4972
    29  2.7300e+00  2.2926e-03  9.0711e-04  2.5794e+03  0:14:02 4971
    30  2.8950e+00  2.4394e-03  9.2877e-04  2.5955e+03  0:11:14 4970
    31  3.1250e+00  2.5406e-03  9.3291e-04  2.6090e+03  0:08:59 4969
    32  3.2744e+00  2.5620e-03  9.1547e-04  2.6198e+03  0:07:11 4968
    33  3.3845e+00  2.5473e-03  8.7671e-04  2.6282e+03  0:05:45 4967

  iter  continuity  x-velocity  y-velocity     drag-co     time/iter
    34  3.4781e+00  2.4880e-03  8.2739e-04  2.6319e+03  0:04:36 4966
    35  3.4876e+00  2.4150e-03  7.8085e-04  2.6331e+03  0:03:41 4965
    36  3.5001e+00  2.3239e-03  7.4686e-04  2.6320e+03  0:02:56 4964
    37  3.4484e+00  2.1970e-03  7.0610e-04  2.6298e+03  0:02:21 4963
    38  3.4074e+00  2.0730e-03  6.6942e-04  2.6244e+03  0:01:53 4962
    39  3.3089e+00  1.9505e-03  6.3568e-04  2.6176e+03  0:01:30 4961
    40  3.1830e+00  1.8459e-03  6.1926e-04  2.6106e+03  0:01:12 4960
    41  3.0461e+00  1.7579e-03  5.9350e-04  2.6031e+03  0:17:30 4959
    42  2.9305e+00  1.6765e-03  5.7955e-04  2.5956e+03  0:13:59 4958
    43  2.7989e+00  1.6000e-03  5.5936e-04  2.5867e+03  0:11:11 4957
    44  2.6418e+00  1.5162e-03  5.3994e-04  2.5773e+03  0:08:57 4956

  iter  continuity  x-velocity  y-velocity     drag-co     time/iter
    45  2.5325e+00  1.4188e-03  5.2371e-04  2.5684e+03  0:07:10 4955
    46  2.4320e+00  1.3323e-03  5.0142e-04  2.5599e+03  0:05:44 4954
    47  2.3039e+00  1.2432e-03  4.7545e-04  2.5514e+03  0:04:35 4953
    48  2.1879e+00  1.1506e-03  4.5256e-04  2.5428e+03  0:03:40 4952
    49  2.0770e+00  1.0655e-03  4.2929e-04  2.5340e+03  0:02:56 4951
    50  1.9730e+00  9.9049e-04  4.0915e-04  2.5267e+03  0:02:21 4950
    51  1.8678e+00  9.2981e-04  3.9135e-04  2.5200e+03  0:01:52 4949

 Reversed flow on 2 faces (2.6% area) of pressure-outlet 7.
    52  1.8150e+00  8.9242e-04  3.7467e-04  2.5137e+03  0:01:30 4948

 Reversed flow on 2 faces (2.6% area) of pressure-outlet 7.
    53  1.7460e+00  8.5544e-04  3.6576e-04  2.5063e+03  0:01:12 4947

 Reversed flow on 2 faces (2.6% area) of pressure-outlet 7.
    54  1.6788e+00  8.1369e-04  3.5512e-04  2.4997e+03  0:00:58 4946

 Reversed flow on 5 faces (6.5% area) of pressure-outlet 7.
    55  1.6054e+00  7.9111e-04  3.4459e-04  2.4940e+03  0:00:46 4945

 Reversed flow on 5 faces (6.5% area) of pressure-outlet 7.

  iter  continuity  x-velocity  y-velocity     drag-co     time/iter
    56  1.6173e+00  7.5181e-04  3.3858e-04  2.4892e+03  0:00:37 4944

 Reversed flow on 7 faces (9.1% area) of pressure-outlet 7.
    57  1.6052e+00  7.0810e-04  3.1575e-04  2.4834e+03  0:00:29 4943

 Reversed flow on 8 faces (10.4% area) of pressure-outlet 7.
    58  1.5260e+00  6.9898e-04  3.0412e-04  2.4783e+03  0:00:24 4942

 Reversed flow on 9 faces (11.7% area) of pressure-outlet 7.
    59  1.5572e+00  6.8651e-04  2.9347e-04  2.4736e+03  0:16:47 4941

 Reversed flow on 7 faces (9.1% area) of pressure-outlet 7.
    60  1.4806e+00  7.0554e-04  2.9867e-04  2.4689e+03  0:13:25 4940

 Reversed flow on 10 faces (13.0% area) of pressure-outlet 7.
    61  1.4777e+00  7.0909e-04  3.1129e-04  2.4655e+03  0:10:44 4939

 Reversed flow on 11 faces (14.3% area) of pressure-outlet 7.
    62  1.5408e+00  7.0451e-04  3.0296e-04  2.4615e+03  0:08:35 4938

 Reversed flow on 12 faces (15.6% area) of pressure-outlet 7.
    63  1.5444e+00  7.5767e-04  3.1245e-04  2.4574e+03  0:06:52 4937

 Reversed flow on 12 faces (15.6% area) of pressure-outlet 7.
    64  1.5165e+00  7.9507e-04  3.4609e-04  2.4554e+03  0:05:30 4936

 Reversed flow on 13 faces (16.9% area) of pressure-outlet 7.
    65  1.6205e+00  8.3158e-04  3.5820e-04  2.4534e+03  0:04:24 4935

 Reversed flow on 16 faces (20.8% area) of pressure-outlet 7.
    66  1.6568e+00  9.3160e-04  3.8117e-04  2.4503e+03  0:03:31 4934

 Reversed flow on 16 faces (20.8% area) of pressure-outlet 7.

  iter  continuity  x-velocity  y-velocity     drag-co     time/iter
    67  1.6930e+00  1.0553e-03  4.3990e-04  2.4494e+03  0:02:49 4933

 Reversed flow on 17 faces (22.1% area) of pressure-outlet 7.
    68  1.8360e+00  1.1504e-03  4.7851e-04  2.4496e+03  0:02:15 4932

 Reversed flow on 18 faces (23.4% area) of pressure-outlet 7.
    69  1.9713e+00  1.2779e-03  5.2069e-04  2.4481e+03  0:01:48 4931

 Reversed flow on 19 faces (24.7% area) of pressure-outlet 7.
    70  2.1072e+00  1.4186e-03  5.7130e-04  2.4509e+03  0:01:26 4930

 Reversed flow on 18 faces (23.5% area) of pressure-outlet 7.
    71  2.2831e+00  1.5581e-03  6.4797e-04  2.4575e+03  0:01:09 4929

 Reversed flow on 18 faces (23.5% area) of pressure-outlet 7.
    72  2.4008e+00  1.6768e-03  7.2272e-04  2.4660e+03  0:00:55 4928

 Reversed flow on 19 faces (24.8% area) of pressure-outlet 7.
    73  2.6070e+00  1.7719e-03  8.0236e-04  2.4766e+03  0:00:44 4927

 Reversed flow on 21 faces (27.4% area) of pressure-outlet 7.
    74  2.7689e+00  1.8031e-03  8.5570e-04  2.4894e+03  0:00:35 4926

 Reversed flow on 21 faces (27.4% area) of pressure-outlet 7.
    75  2.8666e+00  1.7542e-03  8.7980e-04  2.5044e+03  0:00:28 4925

 Reversed flow on 21 faces (27.4% area) of pressure-outlet 7.
    76  2.9891e+00  1.6576e-03  8.6639e-04  2.5185e+03  0:16:47 4924

 Reversed flow on 21 faces (27.4% area) of pressure-outlet 7.
    77  3.0013e+00  1.5258e-03  8.1529e-04  2.5308e+03  0:13:26 4923

 Reversed flow on 23 faces (30.0% area) of pressure-outlet 7.

  iter  continuity  x-velocity  y-velocity     drag-co     time/iter
    78  2.9571e+00  1.3497e-03  7.3296e-04  2.5372e+03  0:10:44 4922

 Reversed flow on 23 faces (30.0% area) of pressure-outlet 7.
    79  2.9051e+00  1.1518e-03  6.2402e-04  2.5373e+03  0:08:35 4921

 Reversed flow on 22 faces (28.7% area) of pressure-outlet 7.
    80  2.7909e+00  9.7324e-04  5.0945e-04  2.5320e+03  0:06:52 4920

 Reversed flow on 22 faces (28.7% area) of pressure-outlet 7.
    81  2.6304e+00  8.3191e-04  3.9966e-04  2.5239e+03  0:05:30 4919

 Reversed flow on 24 faces (31.3% area) of pressure-outlet 7.
    82  2.3837e+00  7.1977e-04  3.2226e-04  2.5122e+03  0:04:24 4918

 Reversed flow on 24 faces (31.3% area) of pressure-outlet 7.
    83  2.1021e+00  6.4342e-04  2.8903e-04  2.5009e+03  0:03:31 4917

 Reversed flow on 22 faces (28.7% area) of pressure-outlet 7.
    84  1.8189e+00  5.8758e-04  2.7818e-04  2.4910e+03  0:02:49 4916

 Reversed flow on 21 faces (27.4% area) of pressure-outlet 7.
    85  1.5959e+00  5.4311e-04  2.6923e-04  2.4828e+03  0:02:15 4915

 Reversed flow on 20 faces (26.1% area) of pressure-outlet 7.
    86  1.3359e+00  5.0529e-04  2.6197e-04  2.4773e+03  0:01:48 4914

 Reversed flow on 21 faces (27.4% area) of pressure-outlet 7.
    87  1.1432e+00  4.8014e-04  2.5367e-04  2.4732e+03  0:01:26 4913

 Reversed flow on 20 faces (26.1% area) of pressure-outlet 7.
    88  9.8252e-01  4.7405e-04  2.4782e-04  2.4705e+03  0:01:09 4912

 Reversed flow on 18 faces (23.5% area) of pressure-outlet 7.

  iter  continuity  x-velocity  y-velocity     drag-co     time/iter
    89  8.7760e-01  4.9017e-04  2.4450e-04  2.4683e+03  0:00:55 4911

 Reversed flow on 18 faces (23.5% area) of pressure-outlet 7.
    90  8.1288e-01  5.1793e-04  2.4599e-04  2.4652e+03  0:00:44 4910

 Reversed flow on 17 faces (22.1% area) of pressure-outlet 7.
    91  7.5959e-01  5.5913e-04  2.5284e-04  2.4602e+03  0:00:35 4909

 Reversed flow on 17 faces (22.1% area) of pressure-outlet 7.
    92  7.2944e-01  6.1750e-04  2.7007e-04  2.4542e+03  0:00:28 4908

 Reversed flow on 17 faces (22.1% area) of pressure-outlet 7.
    93  7.0148e-01  6.9841e-04  2.9768e-04  2.4465e+03  0:00:23 4907

 Reversed flow on 16 faces (20.8% area) of pressure-outlet 7.
    94  6.8593e-01  7.8627e-04  3.3681e-04  2.4382e+03  0:16:39 4906

 Reversed flow on 14 faces (18.2% area) of pressure-outlet 7.
    95  7.0615e-01  8.9676e-04  3.9001e-04  2.4285e+03  0:13:19 4905

 Reversed flow on 11 faces (14.3% area) of pressure-outlet 7.
    96  7.5523e-01  1.0001e-03  4.4607e-04  2.4180e+03  0:10:39 4904

 Reversed flow on 10 faces (13.0% area) of pressure-outlet 7.
    97  8.1651e-01  1.0821e-03  5.0007e-04  2.4081e+03  0:08:31 4903

 Reversed flow on 11 faces (14.3% area) of pressure-outlet 7.
    98  8.8252e-01  1.1279e-03  5.4120e-04  2.4003e+03  0:06:49 4902

 Reversed flow on 11 faces (14.3% area) of pressure-outlet 7.
    99  9.2904e-01  1.1345e-03  5.6330e-04  2.3947e+03  0:05:27 4901

 Reversed flow on 12 faces (15.6% area) of pressure-outlet 7.

  iter  continuity  x-velocity  y-velocity     drag-co     time/iter
   100  9.5793e-01  1.0984e-03  5.6488e-04  2.3912e+03  0:04:22 4900

 Reversed flow on 13 faces (16.8% area) of pressure-outlet 7.
   101  9.6990e-01  1.0424e-03  5.4686e-04  2.3890e+03  0:03:29 4899

 Reversed flow on 13 faces (16.8% area) of pressure-outlet 7.
   102  9.5912e-01  9.7565e-04  5.1338e-04  2.3874e+03  0:02:47 4898

 Reversed flow on 14 faces (18.1% area) of pressure-outlet 7.
   103  9.2190e-01  9.0194e-04  4.7368e-04  2.3862e+03  0:02:14 4897

 Reversed flow on 14 faces (18.1% area) of pressure-outlet 7.
   104  8.8432e-01  8.2626e-04  4.2616e-04  2.3849e+03  0:01:47 4896

 Reversed flow on 17 faces (22.1% area) of pressure-outlet 7.
   105  8.2138e-01  7.5044e-04  3.8099e-04  2.3839e+03  0:01:26 4895

 Reversed flow on 20 faces (26.0% area) of pressure-outlet 7.
   106  7.5210e-01  6.7829e-04  3.3107e-04  2.3833e+03  0:01:09 4894

 Reversed flow on 21 faces (27.3% area) of pressure-outlet 7.
   107  6.8477e-01  6.0809e-04  2.8455e-04  2.3825e+03  0:00:55 4893

 Reversed flow on 23 faces (29.9% area) of pressure-outlet 7.
   108  6.1363e-01  5.3520e-04  2.4249e-04  2.3819e+03  0:17:02 4892

 Reversed flow on 23 faces (29.9% area) of pressure-outlet 7.
   109  5.6108e-01  4.6261e-04  2.0288e-04  2.3814e+03  0:13:38 4891

 Reversed flow on 23 faces (29.9% area) of pressure-outlet 7.
   110  5.1204e-01  3.9249e-04  1.6692e-04  2.3809e+03  0:10:54 4890

 Reversed flow on 23 faces (29.9% area) of pressure-outlet 7.

  iter  continuity  x-velocity  y-velocity     drag-co     time/iter
   111  4.5985e-01  3.2452e-04  1.3545e-04  2.3805e+03  0:08:43 4889

 Reversed flow on 24 faces (31.2% area) of pressure-outlet 7.
   112  4.1314e-01  2.6887e-04  1.0862e-04  2.3801e+03  0:06:58 4888

 Reversed flow on 24 faces (31.2% area) of pressure-outlet 7.
   113  3.7337e-01  2.2808e-04  8.9258e-05  2.3799e+03  0:05:35 4887

 Reversed flow on 24 faces (31.2% area) of pressure-outlet 7.
   114  3.4074e-01  2.1031e-04  8.2541e-05  2.3803e+03  0:04:28 4886

 Reversed flow on 24 faces (31.2% area) of pressure-outlet 7.
   115  3.1707e-01  2.2016e-04  9.2588e-05  2.3814e+03  0:03:34 4885

 Reversed flow on 24 faces (31.2% area) of pressure-outlet 7.
   116  3.1355e-01  2.6023e-04  1.1517e-04  2.3829e+03  0:02:51 4884

 Reversed flow on 25 faces (32.5% area) of pressure-outlet 7.
   117  3.2264e-01  3.1760e-04  1.4518e-04  2.3851e+03  0:18:34 4883

 Reversed flow on 24 faces (31.2% area) of pressure-outlet 7.
   118  3.4432e-01  3.7289e-04  1.7146e-04  2.3880e+03  0:14:51 4882

 Reversed flow on 21 faces (27.3% area) of pressure-outlet 7.
   119  3.6931e-01  4.2558e-04  1.9980e-04  2.3920e+03  0:11:52 4881

 Reversed flow on 21 faces (27.3% area) of pressure-outlet 7.
   120  4.0342e-01  4.7325e-04  2.2628e-04  2.3966e+03  0:09:30 4880

 Reversed flow on 20 faces (26.0% area) of pressure-outlet 7.
   121  4.3351e-01  5.1124e-04  2.4960e-04  2.4018e+03  0:07:36 4879

 Reversed flow on 17 faces (22.1% area) of pressure-outlet 7.

  iter  continuity  x-velocity  y-velocity     drag-co     time/iter
   122  4.6199e-01  5.4210e-04  2.6903e-04  2.4076e+03  0:06:05 4878

 Reversed flow on 16 faces (20.8% area) of pressure-outlet 7.
   123  4.8170e-01  5.6606e-04  2.8400e-04  2.4139e+03  0:04:52 4877

 Reversed flow on 15 faces (19.6% area) of pressure-outlet 7.
   124  4.9339e-01  5.8190e-04  2.9475e-04  2.4202e+03  0:03:53 4876

 Reversed flow on 18 faces (23.4% area) of pressure-outlet 7.
   125  5.0435e-01  5.9255e-04  3.0165e-04  2.4267e+03  0:03:07 4875

 Reversed flow on 21 faces (27.3% area) of pressure-outlet 7.
   126  5.0847e-01  5.9078e-04  3.0324e-04  2.4335e+03  0:02:29 4874

 Reversed flow on 23 faces (29.9% area) of pressure-outlet 7.
   127  5.1050e-01  5.8301e-04  2.9955e-04  2.4409e+03  0:01:59 4873

 Reversed flow on 23 faces (29.9% area) of pressure-outlet 7.
   128  5.0461e-01  5.7048e-04  2.9298e-04  2.4488e+03  0:01:35 4872

 Reversed flow on 23 faces (29.9% area) of pressure-outlet 7.
   129  4.9335e-01  5.4590e-04  2.8174e-04  2.4574e+03  0:01:16 4871

 Reversed flow on 23 faces (29.9% area) of pressure-outlet 7.
   130  4.8050e-01  5.1904e-04  2.6654e-04  2.4659e+03  0:17:15 4870

 Reversed flow on 24 faces (31.2% area) of pressure-outlet 7.
   131  4.5937e-01  4.8822e-04  2.4956e-04  2.4741e+03  0:13:48 4869

 Reversed flow on 24 faces (31.2% area) of pressure-outlet 7.
   132  4.3134e-01  4.5598e-04  2.3159e-04  2.4818e+03  0:11:02 4868

 Reversed flow on 24 faces (31.2% area) of pressure-outlet 7.

  iter  continuity  x-velocity  y-velocity     drag-co     time/iter
   133  4.0929e-01  4.2234e-04  2.1256e-04  2.4883e+03  0:08:50 4867

 Reversed flow on 24 faces (31.2% area) of pressure-outlet 7.
   134  3.8909e-01  3.8465e-04  1.9207e-04  2.4939e+03  0:07:04 4866

 Reversed flow on 25 faces (32.5% area) of pressure-outlet 7.
   135  3.6631e-01  3.4822e-04  1.7563e-04  2.4991e+03  0:05:39 4865

 Reversed flow on 25 faces (32.5% area) of pressure-outlet 7.
   136  3.4506e-01  3.0904e-04  1.5616e-04  2.5037e+03  0:04:31 4864

 Reversed flow on 25 faces (32.5% area) of pressure-outlet 7.
   137  3.1944e-01  2.7128e-04  1.3769e-04  2.5080e+03  0:03:37 4863

 Reversed flow on 25 faces (32.5% area) of pressure-outlet 7.
   138  2.9742e-01  2.3807e-04  1.2065e-04  2.5123e+03  0:02:53 4862

 Reversed flow on 26 faces (33.8% area) of pressure-outlet 7.
   139  2.7473e-01  2.0884e-04  1.0532e-04  2.5166e+03  0:02:19 4861

 Reversed flow on 26 faces (33.8% area) of pressure-outlet 7.
   140  2.5301e-01  1.8471e-04  9.2348e-05  2.5215e+03  0:01:51 4860

 Reversed flow on 26 faces (33.8% area) of pressure-outlet 7.
   141  2.3515e-01  1.6747e-04  8.2859e-05  2.5268e+03  0:01:29 4859

 Reversed flow on 26 faces (33.8% area) of pressure-outlet 7.
   142  2.2361e-01  1.6210e-04  8.0595e-05  2.5322e+03  0:01:11 4858

 Reversed flow on 26 faces (33.8% area) of pressure-outlet 7.
   143  2.1079e-01  1.7036e-04  8.6722e-05  2.5377e+03  0:17:08 4857

 Reversed flow on 26 faces (33.8% area) of pressure-outlet 7.

  iter  continuity  x-velocity  y-velocity     drag-co     time/iter
   144  2.0258e-01  1.8244e-04  8.9619e-05  2.5430e+03  0:13:42 4856

 Reversed flow on 26 faces (33.8% area) of pressure-outlet 7.
   145  1.9858e-01  1.9756e-04  9.4881e-05  2.5485e+03  0:10:58 4855

 Reversed flow on 26 faces (33.8% area) of pressure-outlet 7.
   146  1.9932e-01  2.1286e-04  1.0002e-04  2.5540e+03  0:08:46 4854

 Reversed flow on 26 faces (33.8% area) of pressure-outlet 7.
   147  2.0139e-01  2.2429e-04  1.0378e-04  2.5595e+03  0:07:01 4853

 Reversed flow on 26 faces (33.8% area) of pressure-outlet 7.
   148  2.0007e-01  2.3128e-04  1.0712e-04  2.5650e+03  0:05:37 4852

 Reversed flow on 26 faces (33.8% area) of pressure-outlet 7.
   149  1.9975e-01  2.3687e-04  1.0960e-04  2.5704e+03  0:04:29 4851

 Reversed flow on 25 faces (32.5% area) of pressure-outlet 7.
   150  1.9943e-01  2.4184e-04  1.1131e-04  2.5757e+03  0:03:35 4850

 Reversed flow on 25 faces (32.5% area) of pressure-outlet 7.
   151  1.9565e-01  2.4625e-04  1.1259e-04  2.5811e+03  0:02:52 4849

 Reversed flow on 26 faces (33.8% area) of pressure-outlet 7.
   152  1.9246e-01  2.4880e-04  1.1318e-04  2.5865e+03  0:02:18 4848

 Reversed flow on 26 faces (33.8% area) of pressure-outlet 7.
   153  1.9155e-01  2.4989e-04  1.1319e-04  2.5923e+03  0:01:50 4847

 Reversed flow on 26 faces (33.8% area) of pressure-outlet 7.
   154  1.8475e-01  2.4899e-04  1.1335e-04  2.5983e+03  0:01:28 4846

 Reversed flow on 26 faces (33.8% area) of pressure-outlet 7.

  iter  continuity  x-velocity  y-velocity     drag-co     time/iter
   155  1.8101e-01  2.4789e-04  1.1339e-04  2.6050e+03  0:17:19 4845

 Reversed flow on 26 faces (33.8% area) of pressure-outlet 7.
   156  1.8088e-01  2.4537e-04  1.1368e-04  2.6122e+03  0:13:51 4844

 Reversed flow on 26 faces (33.8% area) of pressure-outlet 7.
   157  1.8256e-01  2.4301e-04  1.1366e-04  2.6200e+03  0:11:05 4843

 Reversed flow on 26 faces (33.8% area) of pressure-outlet 7.
   158  1.8505e-01  2.3977e-04  1.1347e-04  2.6286e+03  0:08:52 4842

 Reversed flow on 26 faces (33.8% area) of pressure-outlet 7.
   159  1.8649e-01  2.3591e-04  1.1316e-04  2.6379e+03  0:07:05 4841

 Reversed flow on 27 faces (35.1% area) of pressure-outlet 7.
   160  1.8867e-01  2.3205e-04  1.1257e-04  2.6479e+03  0:05:40 4840

 Reversed flow on 26 faces (33.8% area) of pressure-outlet 7.
   161  1.9262e-01  2.2793e-04  1.1178e-04  2.6586e+03  0:04:32 4839

 Reversed flow on 26 faces (33.8% area) of pressure-outlet 7.
   162  1.9386e-01  2.2348e-04  1.1120e-04  2.6700e+03  0:03:38 4838

 Reversed flow on 26 faces (33.8% area) of pressure-outlet 7.
   163  1.9413e-01  2.1848e-04  1.1078e-04  2.6822e+03  0:02:54 4837

 Reversed flow on 27 faces (35.1% area) of pressure-outlet 7.
   164  1.9375e-01  2.1389e-04  1.1111e-04  2.6951e+03  0:02:19 4836

 Reversed flow on 27 faces (35.1% area) of pressure-outlet 7.
   165  1.9519e-01  2.1038e-04  1.1165e-04  2.7086e+03  0:01:51 4835

 Reversed flow on 27 faces (35.1% area) of pressure-outlet 7.

  iter  continuity  x-velocity  y-velocity     drag-co     time/iter
   166  2.0088e-01  2.0767e-04  1.1348e-04  2.7229e+03  0:17:36 4834

 Reversed flow on 27 faces (35.1% area) of pressure-outlet 7.
   167  2.0751e-01  2.0631e-04  1.1608e-04  2.7378e+03  0:14:05 4833

 Reversed flow on 27 faces (35.1% area) of pressure-outlet 7.
   168  2.1243e-01  2.0662e-04  1.1898e-04  2.7534e+03  0:11:15 4832

 Reversed flow on 27 faces (35.1% area) of pressure-outlet 7.
   169  2.2067e-01  2.0914e-04  1.2246e-04  2.7697e+03  0:09:00 4831

 Reversed flow on 27 faces (35.1% area) of pressure-outlet 7.
   170  2.3025e-01  2.1382e-04  1.2636e-04  2.7868e+03  0:07:12 4830

 Reversed flow on 27 faces (35.1% area) of pressure-outlet 7.
   171  2.3848e-01  2.2146e-04  1.3110e-04  2.8041e+03  0:05:46 4829

 Reversed flow on 27 faces (35.1% area) of pressure-outlet 7.
   172  2.4804e-01  2.2768e-04  1.3614e-04  2.8217e+03  0:04:36 4828

 Reversed flow on 27 faces (35.1% area) of pressure-outlet 7.
   173  2.5631e-01  2.3586e-04  1.4147e-04  2.8394e+03  0:03:41 4827

 Reversed flow on 27 faces (35.1% area) of pressure-outlet 7.
   174  2.6158e-01  2.4496e-04  1.4734e-04  2.8573e+03  0:02:57 4826

 Reversed flow on 27 faces (35.1% area) of pressure-outlet 7.
   175  2.6893e-01  2.5471e-04  1.5361e-04  2.8750e+03  0:02:21 4825

 Reversed flow on 27 faces (35.1% area) of pressure-outlet 7.
   176  2.7622e-01  2.6162e-04  1.5909e-04  2.8932e+03  0:17:58 4824

 Reversed flow on 27 faces (35.1% area) of pressure-outlet 7.

  iter  continuity  x-velocity  y-velocity     drag-co     time/iter
   177  2.8094e-01  2.7245e-04  1.6462e-04  2.9117e+03  0:14:22 4823

 Reversed flow on 27 faces (35.1% area) of pressure-outlet 7.
   178  2.8891e-01  2.8421e-04  1.6983e-04  2.9307e+03  0:11:30 4822

 Reversed flow on 27 faces (35.1% area) of pressure-outlet 7.
   179  2.9801e-01  2.9207e-04  1.7504e-04  2.9503e+03  0:09:12 4821

 Reversed flow on 27 faces (35.1% area) of pressure-outlet 7.
   180  3.0768e-01  3.0302e-04  1.8011e-04  2.9706e+03  0:07:21 4820

 Reversed flow on 27 faces (35.1% area) of pressure-outlet 7.
   181  3.2049e-01  3.1681e-04  1.8506e-04  2.9916e+03  0:05:53 4819

 Reversed flow on 27 faces (35.1% area) of pressure-outlet 7.
   182  3.3293e-01  3.2829e-04  1.8967e-04  3.0135e+03  0:04:42 4818

 Reversed flow on 27 faces (35.1% area) of pressure-outlet 7.
   183  3.4515e-01  3.4161e-04  1.9491e-04  3.0361e+03  0:03:46 4817

 Reversed flow on 27 faces (35.1% area) of pressure-outlet 7.
   184  3.5576e-01  3.5833e-04  1.9904e-04  3.0595e+03  0:03:01 4816

 Reversed flow on 27 faces (35.1% area) of pressure-outlet 7.
   185  3.6420e-01  3.7624e-04  2.0385e-04  3.0831e+03  0:02:24 4815

 Reversed flow on 27 faces (35.1% area) of pressure-outlet 7.
   186  3.7671e-01  3.9644e-04  2.1127e-04  3.1066e+03  0:01:56 4814

 Reversed flow on 27 faces (35.1% area) of pressure-outlet 7.
   187  3.8981e-01  4.2405e-04  2.1958e-04  3.1299e+03  0:01:32 4813

 Reversed flow on 27 faces (35.1% area) of pressure-outlet 7.

  iter  continuity  x-velocity  y-velocity     drag-co     time/iter
   188  3.9920e-01  4.5080e-04  2.3018e-04  3.1528e+03  0:01:14 4812

 Reversed flow on 28 faces (36.4% area) of pressure-outlet 7.
   189  4.2013e-01  4.7679e-04  2.4137e-04  3.1753e+03  0:17:01 4811

 Reversed flow on 28 faces (36.4% area) of pressure-outlet 7.
   190  4.4236e-01  5.0858e-04  2.5344e-04  3.1972e+03  0:13:37 4810

 Reversed flow on 28 faces (36.4% area) of pressure-outlet 7.
   191  4.5771e-01  5.4055e-04  2.6263e-04  3.2181e+03  0:10:53 4809

 Reversed flow on 28 faces (36.4% area) of pressure-outlet 7.
   192  4.7959e-01  5.6938e-04  2.7657e-04  3.2384e+03  0:08:43 4808

 Reversed flow on 27 faces (35.1% area) of pressure-outlet 7.
   193  5.1282e-01  6.0593e-04  2.9341e-04  3.2579e+03  0:06:58 4807

 Reversed flow on 27 faces (35.1% area) of pressure-outlet 7.
   194  5.4214e-01  6.4287e-04  3.0985e-04  3.2763e+03  0:05:34 4806

 Reversed flow on 28 faces (36.4% area) of pressure-outlet 7.
   195  5.7408e-01  6.8112e-04  3.2796e-04  3.2933e+03  0:04:27 4805

 Reversed flow on 28 faces (36.4% area) of pressure-outlet 7.
   196  6.0439e-01  7.2042e-04  3.4736e-04  3.3079e+03  0:03:34 4804

 Reversed flow on 28 faces (36.4% area) of pressure-outlet 7.
   197  6.3528e-01  7.6220e-04  3.6668e-04  3.3189e+03  0:02:51 4803

 Reversed flow on 28 faces (36.4% area) of pressure-outlet 7.
   198  6.7265e-01  8.0770e-04  3.9201e-04  3.3247e+03  0:02:17 4802

 Reversed flow on 28 faces (36.4% area) of pressure-outlet 7.

  iter  continuity  x-velocity  y-velocity     drag-co     time/iter
   199  7.1204e-01  8.5658e-04  4.1740e-04  3.3239e+03  0:01:49 4801

 Reversed flow on 27 faces (35.1% area) of pressure-outlet 7.
   200  7.6156e-01  9.2137e-04  4.5219e-04  3.3150e+03  0:01:28 4800

 Reversed flow on 28 faces (36.4% area) of pressure-outlet 7.
   201  8.1756e-01  9.9592e-04  4.8965e-04  3.2966e+03  0:01:10 4799

 Reversed flow on 28 faces (36.4% area) of pressure-outlet 7.
   202  8.7374e-01  1.0893e-03  5.3294e-04  3.2666e+03  0:00:56 4798

 Reversed flow on 28 faces (36.4% area) of pressure-outlet 7.
   203  9.5853e-01  1.2069e-03  5.8878e-04  3.2238e+03  0:16:44 4797

 Reversed flow on 28 faces (36.4% area) of pressure-outlet 7.
   204  1.0593e+00  1.3415e-03  6.5648e-04  3.1671e+03  0:13:23 4796

 Reversed flow on 28 faces (36.4% area) of pressure-outlet 7.
   205  1.1882e+00  1.5289e-03  7.4311e-04  3.1008e+03  0:10:42 4795

 Reversed flow on 27 faces (35.1% area) of pressure-outlet 7.
   206  1.3641e+00  1.8006e-03  8.5730e-04  3.0358e+03  0:08:34 4794

 Reversed flow on 17 faces (22.1% area) of pressure-outlet 7.
   207  1.5603e+00  2.1550e-03  1.0175e-03  3.0008e+03  0:06:51 4793

 Reversed flow on 11 faces (14.4% area) of pressure-outlet 7.
   208  1.8252e+00  2.6388e-03  1.2274e-03  3.0442e+03  0:05:29 4792

 Reversed flow on 11 faces (14.4% area) of pressure-outlet 7.
   209  2.1385e+00  3.2678e-03  1.5122e-03  3.2197e+03  0:04:23 4791

 Reversed flow on 11 faces (14.4% area) of pressure-outlet 7.

  iter  continuity  x-velocity  y-velocity     drag-co     time/iter
   210  2.5542e+00  4.0151e-03  1.8851e-03  3.5323e+03  0:03:30 4790

 Reversed flow on 11 faces (14.4% area) of pressure-outlet 7.
   211  2.9435e+00  4.7414e-03  2.2863e-03  3.9110e+03  0:02:48 4789

 Reversed flow on 11 faces (14.4% area) of pressure-outlet 7.
   212  3.3927e+00  5.4277e-03  2.6629e-03  4.1837e+03  0:02:15 4788

 Reversed flow on 6 faces (7.8% area) of pressure-outlet 7.
   213  3.6782e+00  6.0248e-03  3.0861e-03  4.1770e+03  0:01:48 4787

 Reversed flow on 3 faces (3.9% area) of pressure-outlet 7.
   214  4.0321e+00  6.5898e-03  3.6288e-03  3.9697e+03  0:17:23 4786

 Reversed flow on 1 face (1.3% area) of pressure-outlet 7.
   215  4.3899e+00  7.1028e-03  4.1962e-03  3.8929e+03  0:13:54 4785
   216  4.6580e+00  7.3768e-03  4.4719e-03  4.0141e+03  0:11:07 4784
   217  5.0020e+00  7.4329e-03  4.3503e-03  4.0693e+03  0:08:54 4783

 Reversed flow on 2 faces (2.6% area) of pressure-outlet 7.
   218  5.0415e+00  7.2240e-03  4.0140e-03  4.0575e+03  0:07:07 4782

 Reversed flow on 4 faces (5.2% area) of pressure-outlet 7.
   219  4.8971e+00  6.8683e-03  3.6408e-03  4.0335e+03  0:05:41 4781

 Reversed flow on 6 faces (7.8% area) of pressure-outlet 7.
   220  4.6442e+00  6.4528e-03  3.2819e-03  3.9946e+03  0:04:33 4780

 Reversed flow on 6 faces (7.8% area) of pressure-outlet 7.

  iter  continuity  x-velocity  y-velocity     drag-co     time/iter
   221  4.3356e+00  6.0685e-03  2.9873e-03  3.9302e+03  0:19:34 4779

 Reversed flow on 6 faces (7.8% area) of pressure-outlet 7.
   222  4.0991e+00  5.7308e-03  2.7935e-03  3.8256e+03  0:15:39 4778

 Reversed flow on 1 face (1.3% area) of pressure-outlet 7.
   223  3.8086e+00  5.5526e-03  2.6188e-03  3.6666e+03  0:12:31 4777
   224  3.5106e+00  5.5615e-03  2.5333e-03  3.4575e+03  0:10:01 4776
   225  3.2564e+00  5.6546e-03  2.5490e-03  3.2740e+03  0:08:01 4775
   226  3.0954e+00  5.7414e-03  2.6081e-03  3.2279e+03  0:06:24 4774
   227  3.0243e+00  5.6824e-03  2.6022e-03  3.3128e+03  0:05:07 4773
   228  2.9539e+00  5.4545e-03  2.4492e-03  3.4141e+03  0:04:06 4772
   229  2.9737e+00  5.2521e-03  2.2697e-03  3.4494e+03  0:03:17 4771

 Reversed flow on 1 face (1.3% area) of pressure-outlet 7.
   230  2.9921e+00  4.9762e-03  2.0693e-03  3.4101e+03  0:02:37 4770

 Reversed flow on 2 faces (2.6% area) of pressure-outlet 7.
   231  3.0225e+00  4.6288e-03  1.8929e-03  3.3351e+03  0:02:06 4769

 Reversed flow on 2 faces (2.6% area) of pressure-outlet 7.

  iter  continuity  x-velocity  y-velocity     drag-co     time/iter
   232  2.9513e+00  4.2960e-03  1.6877e-03  3.2656e+03  0:01:41 4768

 Reversed flow on 2 faces (2.6% area) of pressure-outlet 7.
   233  2.8778e+00  3.9045e-03  1.4674e-03  3.2104e+03  0:01:20 4767

 Reversed flow on 2 faces (2.6% area) of pressure-outlet 7.
   234  2.7616e+00  3.5308e-03  1.2704e-03  3.1702e+03  0:16:58 4766

 Reversed flow on 2 faces (2.6% area) of pressure-outlet 7.
   235  2.6819e+00  3.1481e-03  1.0973e-03  3.1423e+03  0:13:34 4765

 Reversed flow on 2 faces (2.6% area) of pressure-outlet 7.
   236  2.5843e+00  2.8966e-03  9.6406e-04  3.1265e+03  0:10:51 4764

 Reversed flow on 3 faces (3.9% area) of pressure-outlet 7.
   237  2.5658e+00  2.7758e-03  9.1459e-04  3.1219e+03  0:08:41 4763

 Reversed flow on 3 faces (3.9% area) of pressure-outlet 7.
   238  2.6001e+00  2.7762e-03  9.1842e-04  3.1221e+03  0:06:56 4762

 Reversed flow on 4 faces (5.2% area) of pressure-outlet 7.
   239  2.6145e+00  2.8319e-03  9.5349e-04  3.1223e+03  0:05:33 4761

 Reversed flow on 4 faces (5.2% area) of pressure-outlet 7.
   240  2.7405e+00  2.9407e-03  9.8489e-04  3.1194e+03  0:04:26 4760

 Reversed flow on 6 faces (7.8% area) of pressure-outlet 7.
   241  2.8473e+00  3.0900e-03  1.0198e-03  3.1158e+03  0:03:33 4759

 Reversed flow on 8 faces (10.4% area) of pressure-outlet 7.
   242  3.0238e+00  3.2509e-03  1.0845e-03  3.1179e+03  0:02:50 4758

 Reversed flow on 10 faces (13.0% area) of pressure-outlet 7.

  iter  continuity  x-velocity  y-velocity     drag-co     time/iter
   243  3.2056e+00  3.3951e-03  1.1991e-03  3.1306e+03  0:02:16 4757

 Reversed flow on 12 faces (15.6% area) of pressure-outlet 7.
   244  3.4529e+00  3.5249e-03  1.3087e-03  3.1533e+03  0:01:49 4756

 Reversed flow on 14 faces (18.2% area) of pressure-outlet 7.
   245  3.6025e+00  3.6182e-03  1.4040e-03  3.1777e+03  0:17:18 4755

 Reversed flow on 17 faces (22.1% area) of pressure-outlet 7.
   246  3.8510e+00  3.7366e-03  1.4614e-03  3.1965e+03  0:13:50 4754

 Reversed flow on 19 faces (24.7% area) of pressure-outlet 7.
   247  3.9880e+00  3.7736e-03  1.4678e-03  3.2057e+03  0:11:04 4753

 Reversed flow on 22 faces (28.6% area) of pressure-outlet 7.
   248  4.1729e+00  3.6652e-03  1.4024e-03  3.2028e+03  0:08:51 4752

 Reversed flow on 24 faces (31.2% area) of pressure-outlet 7.
   249  4.3775e+00  3.3243e-03  1.2723e-03  3.1987e+03  0:07:05 4751

 Reversed flow on 25 faces (32.5% area) of pressure-outlet 7.
   250  4.4673e+00  2.8581e-03  1.0935e-03  3.1947e+03  0:05:40 4750

 Reversed flow on 23 faces (29.9% area) of pressure-outlet 7.
   251  4.3753e+00  2.4058e-03  9.3022e-04  3.1907e+03  0:04:32 4749

 Reversed flow on 14 faces (18.2% area) of pressure-outlet 7.
   252  4.0744e+00  2.0700e-03  8.0397e-04  3.1869e+03  0:03:37 4748

 Reversed flow on 13 faces (16.8% area) of pressure-outlet 7.
   253  3.7044e+00  2.0051e-03  7.8121e-04  3.1755e+03  0:02:54 4747

 Reversed flow on 18 faces (23.4% area) of pressure-outlet 7.

  iter  continuity  x-velocity  y-velocity     drag-co     time/iter
   254  2.9933e+00  1.9609e-03  7.8599e-04  3.1573e+03  0:02:19 4746

 Reversed flow on 19 faces (24.7% area) of pressure-outlet 7.
   255  2.4652e+00  1.7605e-03  7.2116e-04  3.1381e+03  0:01:51 4745

 Reversed flow on 22 faces (28.6% area) of pressure-outlet 7.
   256  1.9499e+00  1.4968e-03  6.3407e-04  3.1185e+03  0:01:29 4744

 Reversed flow on 24 faces (31.2% area) of pressure-outlet 7.
   257  1.6231e+00  1.2877e-03  5.3869e-04  3.0987e+03  0:01:11 4743

 Reversed flow on 24 faces (31.2% area) of pressure-outlet 7.
   258  1.3864e+00  1.1358e-03  4.6017e-04  3.0787e+03  0:16:45 4742

 Reversed flow on 25 faces (32.5% area) of pressure-outlet 7.
   259  1.2640e+00  1.0470e-03  4.1054e-04  3.0585e+03  0:13:24 4741

 Reversed flow on 25 faces (32.5% area) of pressure-outlet 7.
   260  1.2330e+00  1.0219e-03  4.0032e-04  3.0421e+03  0:10:43 4740

 Reversed flow on 23 faces (29.9% area) of pressure-outlet 7.
   261  1.1875e+00  1.0462e-03  4.1893e-04  3.0256e+03  0:08:34 4739

 Reversed flow on 23 faces (29.9% area) of pressure-outlet 7.
   262  1.1573e+00  1.0969e-03  4.4428e-04  3.0097e+03  0:06:51 4738

 Reversed flow on 23 faces (29.9% area) of pressure-outlet 7.
   263  1.1162e+00  1.1370e-03  4.7370e-04  2.9960e+03  0:05:29 4737

 Reversed flow on 21 faces (27.3% area) of pressure-outlet 7.
   264  1.0835e+00  1.1662e-03  4.9405e-04  2.9834e+03  0:04:23 4736

 Reversed flow on 21 faces (27.3% area) of pressure-outlet 7.

  iter  continuity  x-velocity  y-velocity     drag-co     time/iter
   265  1.0500e+00  1.1809e-03  5.0091e-04  2.9704e+03  0:03:31 4735

 Reversed flow on 21 faces (27.3% area) of pressure-outlet 7.
   266  1.0302e+00  1.2087e-03  5.0773e-04  2.9575e+03  0:02:48 4734

 Reversed flow on 20 faces (26.0% area) of pressure-outlet 7.
   267  1.0169e+00  1.2590e-03  5.1890e-04  2.9460e+03  0:02:15 4733

 Reversed flow on 21 faces (27.3% area) of pressure-outlet 7.
   268  1.0103e+00  1.3127e-03  5.3268e-04  2.9387e+03  0:01:48 4732

 Reversed flow on 24 faces (31.2% area) of pressure-outlet 7.
   269  9.9488e-01  1.3417e-03  5.4399e-04  2.9375e+03  0:01:26 4731

 Reversed flow on 24 faces (31.2% area) of pressure-outlet 7.
   270  9.9293e-01  1.3190e-03  5.4241e-04  2.9436e+03  0:01:09 4730

 Reversed flow on 25 faces (32.5% area) of pressure-outlet 7.
   271  9.7555e-01  1.2728e-03  5.2356e-04  2.9559e+03  0:00:55 4729

 Reversed flow on 25 faces (32.5% area) of pressure-outlet 7.
   272  9.3870e-01  1.2140e-03  4.9837e-04  2.9712e+03  0:16:30 4728

 Reversed flow on 25 faces (32.5% area) of pressure-outlet 7.
   273  8.9196e-01  1.1457e-03  4.6838e-04  2.9857e+03  0:13:12 4727

 Reversed flow on 27 faces (35.1% area) of pressure-outlet 7.
   274  8.4953e-01  1.0719e-03  4.3492e-04  2.9952e+03  0:10:33 4726

 Reversed flow on 27 faces (35.1% area) of pressure-outlet 7.
   275  8.2498e-01  9.9584e-04  4.0813e-04  2.9962e+03  0:08:26 4725

 Reversed flow on 27 faces (35.1% area) of pressure-outlet 7.

  iter  continuity  x-velocity  y-velocity     drag-co     time/iter
   276  8.2670e-01  9.7967e-04  3.9206e-04  2.9882e+03  0:06:45 4724

 Reversed flow on 28 faces (36.4% area) of pressure-outlet 7.
   277  8.2610e-01  1.0167e-03  3.9768e-04  2.9730e+03  0:05:24 4723

 Reversed flow on 25 faces (32.5% area) of pressure-outlet 7.
   278  8.1797e-01  1.0417e-03  4.1861e-04  2.9543e+03  0:04:19 4722

 Reversed flow on 25 faces (32.5% area) of pressure-outlet 7.
   279  8.1852e-01  1.0151e-03  4.2460e-04  2.9357e+03  0:03:27 4721

 Reversed flow on 26 faces (33.8% area) of pressure-outlet 7.
   280  8.1815e-01  9.5803e-04  4.1796e-04  2.9197e+03  0:02:46 4720

 Reversed flow on 27 faces (35.1% area) of pressure-outlet 7.
   281  7.8256e-01  8.8951e-04  3.9858e-04  2.9070e+03  0:02:13 4719

 Reversed flow on 27 faces (35.1% area) of pressure-outlet 7.
   282  7.1989e-01  8.0211e-04  3.6864e-04  2.8965e+03  0:01:46 4718

 Reversed flow on 27 faces (35.1% area) of pressure-outlet 7.
   283  6.7048e-01  7.2988e-04  3.3556e-04  2.8874e+03  0:17:08 4717

 Reversed flow on 27 faces (35.1% area) of pressure-outlet 7.
   284  6.4498e-01  7.3851e-04  3.1607e-04  2.8796e+03  0:13:42 4716

 Reversed flow on 28 faces (36.4% area) of pressure-outlet 7.
   285  6.3080e-01  7.9722e-04  3.1761e-04  2.8737e+03  0:10:58 4715

 Reversed flow on 27 faces (35.1% area) of pressure-outlet 7.
   286  6.2895e-01  8.5724e-04  3.3346e-04  2.8709e+03  0:08:46 4714

 Reversed flow on 26 faces (33.8% area) of pressure-outlet 7.

  iter  continuity  x-velocity  y-velocity     drag-co     time/iter
   287  6.4824e-01  8.9083e-04  3.5520e-04  2.8711e+03  0:07:01 4713

 Reversed flow on 26 faces (33.8% area) of pressure-outlet 7.
   288  6.6173e-01  9.0135e-04  3.6936e-04  2.8728e+03  0:05:37 4712

 Reversed flow on 27 faces (35.1% area) of pressure-outlet 7.
   289  6.6912e-01  9.1091e-04  3.7537e-04  2.8746e+03  0:04:29 4711

 Reversed flow on 27 faces (35.1% area) of pressure-outlet 7.
   290  6.8735e-01  9.8232e-04  3.9047e-04  2.8758e+03  0:03:35 4710

 Reversed flow on 25 faces (32.5% area) of pressure-outlet 7.
   291  7.1753e-01  1.0824e-03  4.2375e-04  2.8773e+03  0:02:52 4709

 Reversed flow on 25 faces (32.5% area) of pressure-outlet 7.
   292  7.4707e-01  1.1519e-03  4.5903e-04  2.8802e+03  0:02:18 4708

 Reversed flow on 25 faces (32.5% area) of pressure-outlet 7.
   293  7.8204e-01  1.1843e-03  4.7823e-04  2.8851e+03  0:01:50 4707

 Reversed flow on 26 faces (33.8% area) of pressure-outlet 7.
   294  8.2084e-01  1.1914e-03  4.8126e-04  2.8916e+03  0:01:28 4706

 Reversed flow on 26 faces (33.8% area) of pressure-outlet 7.
   295  8.3926e-01  1.1682e-03  4.7762e-04  2.8975e+03  0:01:10 4705

 Reversed flow on 27 faces (35.1% area) of pressure-outlet 7.
   296  8.2168e-01  1.1223e-03  4.7053e-04  2.9000e+03  0:16:37 4704

 Reversed flow on 23 faces (29.9% area) of pressure-outlet 7.
   297  8.1134e-01  1.1199e-03  4.7197e-04  2.8974e+03  0:13:18 4703

 Reversed flow on 14 faces (18.3% area) of pressure-outlet 7.

  iter  continuity  x-velocity  y-velocity     drag-co     time/iter
   298  8.2669e-01  1.2041e-03  4.9518e-04  2.8893e+03  0:10:38 4702

 Reversed flow on 13 faces (17.0% area) of pressure-outlet 7.
   299  8.3955e-01  1.3233e-03  5.3344e-04  2.8781e+03  0:08:30 4701

 Reversed flow on 15 faces (19.6% area) of pressure-outlet 7.
   300  8.6275e-01  1.4008e-03  5.6359e-04  2.8680e+03  0:06:48 4700

 Reversed flow on 22 faces (28.7% area) of pressure-outlet 7.
   301  8.9637e-01  1.4251e-03  5.7722e-04  2.8624e+03  0:05:26 4699

 Reversed flow on 24 faces (31.3% area) of pressure-outlet 7.
   302  9.2988e-01  1.3910e-03  5.7363e-04  2.8622e+03  0:04:21 4698

 Reversed flow on 25 faces (32.6% area) of pressure-outlet 7.
   303  9.3162e-01  1.3192e-03  5.5740e-04  2.8655e+03  0:03:29 4697

 Reversed flow on 25 faces (32.6% area) of pressure-outlet 7.
   304  9.0326e-01  1.2196e-03  5.2964e-04  2.8689e+03  0:02:47 4696

 Reversed flow on 27 faces (35.2% area) of pressure-outlet 7.
   305  8.6994e-01  1.1487e-03  4.9907e-04  2.8702e+03  0:02:14 4695

 Reversed flow on 23 faces (29.9% area) of pressure-outlet 7.
   306  8.9141e-01  1.1553e-03  4.8223e-04  2.8684e+03  0:01:47 4694

 Reversed flow on 12 faces (15.6% area) of pressure-outlet 7.
   307  9.0858e-01  1.2516e-03  4.9818e-04  2.8631e+03  0:01:25 4693

 Reversed flow on 14 faces (18.2% area) of pressure-outlet 7.
   308  9.3357e-01  1.3368e-03  5.3092e-04  2.8572e+03  0:01:08 4692

 Reversed flow on 21 faces (27.3% area) of pressure-outlet 7.

  iter  continuity  x-velocity  y-velocity     drag-co     time/iter
   309  9.3054e-01  1.3693e-03  5.5535e-04  2.8523e+03  0:00:55 4691

 Reversed flow on 22 faces (28.6% area) of pressure-outlet 7.
   310  9.5482e-01  1.3493e-03  5.6083e-04  2.8493e+03  0:16:22 4690

 Reversed flow on 24 faces (31.2% area) of pressure-outlet 7.
   311  9.4569e-01  1.2912e-03  5.4965e-04  2.8483e+03  0:13:05 4689

 Reversed flow on 26 faces (33.8% area) of pressure-outlet 7.
   312  9.0948e-01  1.2004e-03  5.2564e-04  2.8470e+03  0:10:28 4688

 Reversed flow on 26 faces (33.8% area) of pressure-outlet 7.
   313  8.5027e-01  1.1234e-03  4.9220e-04  2.8435e+03  0:08:22 4687

 Reversed flow on 26 faces (33.8% area) of pressure-outlet 7.
   314  8.5518e-01  1.1248e-03  4.6622e-04  2.8383e+03  0:06:42 4686

 Reversed flow on 20 faces (26.1% area) of pressure-outlet 7.
   315  8.7669e-01  1.2216e-03  4.7123e-04  2.8328e+03  0:05:21 4685

 Reversed flow on 18 faces (23.5% area) of pressure-outlet 7.
   316  8.9244e-01  1.3264e-03  5.0572e-04  2.8291e+03  0:04:17 4684

 Reversed flow on 24 faces (31.2% area) of pressure-outlet 7.
   317  9.1377e-01  1.3651e-03  5.3439e-04  2.8298e+03  0:03:26 4683

 Reversed flow on 24 faces (31.2% area) of pressure-outlet 7.
   318  9.3405e-01  1.3432e-03  5.4692e-04  2.8342e+03  0:02:44 4682

 Reversed flow on 25 faces (32.6% area) of pressure-outlet 7.
   319  9.2530e-01  1.2851e-03  5.4280e-04  2.8403e+03  0:02:12 4681

 Reversed flow on 26 faces (33.9% area) of pressure-outlet 7.

  iter  continuity  x-velocity  y-velocity     drag-co     time/iter
   320  8.9266e-01  1.2128e-03  5.2631e-04  2.8455e+03  0:17:21 4680

 Reversed flow on 26 faces (33.9% area) of pressure-outlet 7.
   321  8.5484e-01  1.1665e-03  5.0892e-04  2.8481e+03  0:13:53 4679

 Reversed flow on 20 faces (26.0% area) of pressure-outlet 7.
   322  8.8070e-01  1.2087e-03  5.0501e-04  2.8475e+03  0:11:06 4678

 Reversed flow on 13 faces (16.8% area) of pressure-outlet 7.
   323  9.0507e-01  1.3319e-03  5.2761e-04  2.8440e+03  0:08:53 4677

 Reversed flow on 14 faces (18.2% area) of pressure-outlet 7.
   324  9.4447e-01  1.4395e-03  5.6246e-04  2.8395e+03  0:07:06 4676

 Reversed flow on 23 faces (29.9% area) of pressure-outlet 7.
   325  9.5809e-01  1.4746e-03  5.8297e-04  2.8363e+03  0:05:41 4675

 Reversed flow on 23 faces (29.9% area) of pressure-outlet 7.
   326  9.7441e-01  1.4387e-03  5.8483e-04  2.8345e+03  0:04:33 4674

 Reversed flow on 25 faces (32.5% area) of pressure-outlet 7.
   327  9.7186e-01  1.3589e-03  5.6991e-04  2.8328e+03  0:03:38 4673

 Reversed flow on 25 faces (32.5% area) of pressure-outlet 7.
   328  9.3408e-01  1.2652e-03  5.4834e-04  2.8300e+03  0:02:54 4672

 Reversed flow on 26 faces (33.8% area) of pressure-outlet 7.
   329  8.8895e-01  1.1999e-03  5.2821e-04  2.8257e+03  0:02:19 4671

 Reversed flow on 20 faces (26.0% area) of pressure-outlet 7.
   330  9.0885e-01  1.2231e-03  5.1664e-04  2.8198e+03  0:01:52 4670

 Reversed flow on 12 faces (15.7% area) of pressure-outlet 7.

  iter  continuity  x-velocity  y-velocity     drag-co     time/iter
   331  9.1615e-01  1.3361e-03  5.3600e-04  2.8133e+03  0:01:29 4669

 Reversed flow on 13 faces (17.0% area) of pressure-outlet 7.
   332  9.5729e-01  1.4551e-03  5.6980e-04  2.8084e+03  0:16:45 4668

 Reversed flow on 18 faces (23.5% area) of pressure-outlet 7.
   333  9.8887e-01  1.5122e-03  5.9336e-04  2.8069e+03  0:13:24 4667

 Reversed flow on 22 faces (28.7% area) of pressure-outlet 7.
   334  9.9442e-01  1.4845e-03  5.9589e-04  2.8087e+03  0:10:43 4666

 Reversed flow on 23 faces (30.0% area) of pressure-outlet 7.
   335  9.9083e-01  1.4103e-03  5.8273e-04  2.8123e+03  0:08:34 4665

 Reversed flow on 25 faces (32.6% area) of pressure-outlet 7.
   336  9.5480e-01  1.3053e-03  5.5964e-04  2.8157e+03  0:06:51 4664

 Reversed flow on 25 faces (32.6% area) of pressure-outlet 7.
   337  9.0317e-01  1.2125e-03  5.3018e-04  2.8175e+03  0:05:29 4663

 Reversed flow on 26 faces (33.9% area) of pressure-outlet 7.
   338  8.7393e-01  1.1699e-03  5.0268e-04  2.8170e+03  0:04:23 4662

 Reversed flow on 22 faces (28.6% area) of pressure-outlet 7.
   339  9.0116e-01  1.2253e-03  4.9534e-04  2.8143e+03  0:03:30 4661

 Reversed flow on 15 faces (19.5% area) of pressure-outlet 7.
   340  9.2692e-01  1.3378e-03  5.1760e-04  2.8102e+03  0:02:48 4660

 Reversed flow on 17 faces (22.1% area) of pressure-outlet 7.
   341  9.5821e-01  1.4091e-03  5.4540e-04  2.8059e+03  0:02:15 4659

 Reversed flow on 23 faces (29.9% area) of pressure-outlet 7.

  iter  continuity  x-velocity  y-velocity     drag-co     time/iter
   342  9.6324e-01  1.4015e-03  5.5700e-04  2.8019e+03  0:01:48 4658

 Reversed flow on 23 faces (29.9% area) of pressure-outlet 7.
   343  9.5766e-01  1.3299e-03  5.4793e-04  2.7972e+03  0:01:26 4657

 Reversed flow on 25 faces (32.5% area) of pressure-outlet 7.
   344  9.2701e-01  1.2319e-03  5.2503e-04  2.7909e+03  0:01:09 4656

 Reversed flow on 26 faces (33.8% area) of pressure-outlet 7.
   345  8.7070e-01  1.1381e-03  4.9863e-04  2.7839e+03  0:00:55 4655

 Reversed flow on 26 faces (33.8% area) of pressure-outlet 7.
   346  8.1083e-01  1.0778e-03  4.7249e-04  2.7763e+03  0:16:15 4654

 Reversed flow on 24 faces (31.2% area) of pressure-outlet 7.
   347  8.2086e-01  1.0946e-03  4.5766e-04  2.7687e+03  0:13:00 4653

 Reversed flow on 18 faces (23.5% area) of pressure-outlet 7.
   348  8.5258e-01  1.1915e-03  4.6876e-04  2.7629e+03  0:10:24 4652

 Reversed flow on 18 faces (23.5% area) of pressure-outlet 7.
   349  8.7668e-01  1.2855e-03  4.9638e-04  2.7598e+03  0:08:19 4651

 Reversed flow on 19 faces (24.8% area) of pressure-outlet 7.
   350  9.0099e-01  1.3154e-03  5.1346e-04  2.7597e+03  0:06:39 4650

 Reversed flow on 24 faces (31.2% area) of pressure-outlet 7.
   351  9.0392e-01  1.2763e-03  5.1220e-04  2.7619e+03  0:05:19 4649

 Reversed flow on 24 faces (31.2% area) of pressure-outlet 7.
   352  8.8071e-01  1.1977e-03  4.9728e-04  2.7637e+03  0:04:15 4648

 Reversed flow on 25 faces (32.6% area) of pressure-outlet 7.

  iter  continuity  x-velocity  y-velocity     drag-co     time/iter
   353  8.2910e-01  1.1093e-03  4.7714e-04  2.7644e+03  0:03:24 4647

 Reversed flow on 26 faces (33.9% area) of pressure-outlet 7.
   354  7.7275e-01  1.0390e-03  4.5459e-04  2.7635e+03  0:02:43 4646

 Reversed flow on 26 faces (33.9% area) of pressure-outlet 7.
   355  7.4795e-01  1.0061e-03  4.3441e-04  2.7614e+03  0:02:11 4645

 Reversed flow on 24 faces (31.2% area) of pressure-outlet 7.
   356  7.7821e-01  1.0494e-03  4.2820e-04  2.7587e+03  0:01:44 4644

 Reversed flow on 18 faces (23.4% area) of pressure-outlet 7.
   357  8.1578e-01  1.1457e-03  4.4355e-04  2.7556e+03  0:01:24 4643

 Reversed flow on 19 faces (24.7% area) of pressure-outlet 7.
   358  8.3349e-01  1.2015e-03  4.6651e-04  2.7524e+03  0:01:07 4642

 Reversed flow on 22 faces (28.6% area) of pressure-outlet 7.
   359  8.3756e-01  1.1955e-03  4.7525e-04  2.7491e+03  0:00:53 4641

 Reversed flow on 23 faces (29.9% area) of pressure-outlet 7.
   360  8.2518e-01  1.1322e-03  4.6455e-04  2.7441e+03  0:00:43 4640

 Reversed flow on 24 faces (31.2% area) of pressure-outlet 7.
   361  7.8706e-01  1.0433e-03  4.4166e-04  2.7368e+03  0:00:34 4639

 Reversed flow on 26 faces (33.8% area) of pressure-outlet 7.
   362  7.3629e-01  9.5572e-04  4.1756e-04  2.7278e+03  0:15:55 4638

 Reversed flow on 26 faces (33.8% area) of pressure-outlet 7.
   363  6.8807e-01  8.9903e-04  3.9354e-04  2.7186e+03  0:12:44 4637

 Reversed flow on 26 faces (33.8% area) of pressure-outlet 7.

  iter  continuity  x-velocity  y-velocity     drag-co     time/iter
   364  6.8604e-01  8.9187e-04  3.7716e-04  2.7108e+03  0:10:11 4636

 Reversed flow on 24 faces (31.2% area) of pressure-outlet 7.
   365  7.2202e-01  9.5111e-04  3.7921e-04  2.7051e+03  0:08:09 4635

 Reversed flow on 21 faces (27.4% area) of pressure-outlet 7.
   366  7.5100e-01  1.0262e-03  3.9692e-04  2.7024e+03  0:06:31 4634

 Reversed flow on 21 faces (27.4% area) of pressure-outlet 7.
   367  7.6927e-01  1.0572e-03  4.1326e-04  2.7023e+03  0:05:13 4633

 Reversed flow on 23 faces (29.9% area) of pressure-outlet 7.
   368  7.6713e-01  1.0274e-03  4.1198e-04  2.7033e+03  0:04:10 4632

 Reversed flow on 24 faces (31.2% area) of pressure-outlet 7.
   369  7.4434e-01  9.6561e-04  3.9846e-04  2.7036e+03  0:03:20 4631

 Reversed flow on 25 faces (32.5% area) of pressure-outlet 7.
   370  6.9840e-01  8.9099e-04  3.8068e-04  2.7026e+03  0:02:40 4630

 Reversed flow on 25 faces (32.5% area) of pressure-outlet 7.
   371  6.3899e-01  8.2319e-04  3.6139e-04  2.7004e+03  0:02:08 4629

 Reversed flow on 25 faces (32.5% area) of pressure-outlet 7.
   372  6.0310e-01  7.8752e-04  3.4351e-04  2.6979e+03  0:01:42 4628

 Reversed flow on 26 faces (33.8% area) of pressure-outlet 7.
   373  6.1354e-01  7.9674e-04  3.3530e-04  2.6954e+03  0:01:22 4627

 Reversed flow on 24 faces (31.2% area) of pressure-outlet 7.
   374  6.4269e-01  8.5655e-04  3.4305e-04  2.6932e+03  0:01:05 4626

 Reversed flow on 23 faces (29.9% area) of pressure-outlet 7.

  iter  continuity  x-velocity  y-velocity     drag-co     time/iter
   375  6.7304e-01  9.1332e-04  3.5776e-04  2.6916e+03  0:00:52 4625

 Reversed flow on 23 faces (29.9% area) of pressure-outlet 7.
   376  6.8118e-01  9.2167e-04  3.6632e-04  2.6895e+03  0:00:42 4624

 Reversed flow on 25 faces (32.5% area) of pressure-outlet 7.
   377  6.6485e-01  8.8339e-04  3.6117e-04  2.6860e+03  0:15:58 4623

 Reversed flow on 25 faces (32.5% area) of pressure-outlet 7.
   378  6.3652e-01  8.1577e-04  3.4116e-04  2.6805e+03  0:12:46 4622

 Reversed flow on 25 faces (32.5% area) of pressure-outlet 7.
   379  5.8490e-01  7.4278e-04  3.2012e-04  2.6726e+03  0:10:13 4621

 Reversed flow on 26 faces (33.8% area) of pressure-outlet 7.
   380  5.3773e-01  6.8503e-04  3.0215e-04  2.6638e+03  0:08:10 4620

 Reversed flow on 27 faces (35.1% area) of pressure-outlet 7.
   381  5.1363e-01  6.5795e-04  2.8767e-04  2.6557e+03  0:06:32 4619

 Reversed flow on 26 faces (33.8% area) of pressure-outlet 7.
   382  5.2880e-01  6.7586e-04  2.8369e-04  2.6493e+03  0:05:14 4618

 Reversed flow on 25 faces (32.5% area) of pressure-outlet 7.
   383  5.5248e-01  7.2170e-04  2.9056e-04  2.6452e+03  0:04:11 4617

 Reversed flow on 25 faces (32.5% area) of pressure-outlet 7.
   384  5.7756e-01  7.5745e-04  3.0175e-04  2.6431e+03  0:03:21 4616

 Reversed flow on 24 faces (31.2% area) of pressure-outlet 7.
   385  5.8369e-01  7.5089e-04  3.0409e-04  2.6424e+03  0:02:40 4615

 Reversed flow on 25 faces (32.5% area) of pressure-outlet 7.

  iter  continuity  x-velocity  y-velocity     drag-co     time/iter
   386  5.6877e-01  7.1182e-04  2.9617e-04  2.6418e+03  0:02:08 4614

 Reversed flow on 25 faces (32.5% area) of pressure-outlet 7.
   387  5.3807e-01  6.5886e-04  2.7855e-04  2.6403e+03  0:01:43 4613

 Reversed flow on 25 faces (32.5% area) of pressure-outlet 7.
   388  4.9447e-01  6.0321e-04  2.6112e-04  2.6382e+03  0:01:22 4612

 Reversed flow on 26 faces (33.8% area) of pressure-outlet 7.
   389  4.4911e-01  5.5564e-04  2.4510e-04  2.6359e+03  0:01:06 4611

 Reversed flow on 26 faces (33.8% area) of pressure-outlet 7.
   390  4.2548e-01  5.2830e-04  2.3132e-04  2.6338e+03  0:00:53 4610

 Reversed flow on 26 faces (33.8% area) of pressure-outlet 7.
   391  4.3364e-01  5.2877e-04  2.2531e-04  2.6319e+03  0:00:42 4609

 Reversed flow on 27 faces (35.1% area) of pressure-outlet 7.
   392  4.4612e-01  5.5503e-04  2.2700e-04  2.6303e+03  0:00:34 4608

 Reversed flow on 26 faces (33.8% area) of pressure-outlet 7.
   393  4.6206e-01  5.7892e-04  2.3466e-04  2.6287e+03  0:15:48 4607

 Reversed flow on 25 faces (32.5% area) of pressure-outlet 7.
   394  4.6395e-01  5.7527e-04  2.3801e-04  2.6265e+03  0:12:38 4606

 Reversed flow on 26 faces (33.8% area) of pressure-outlet 7.
   395  4.4957e-01  5.4832e-04  2.3360e-04  2.6235e+03  0:10:07 4605

 Reversed flow on 26 faces (33.8% area) of pressure-outlet 7.
   396  4.2514e-01  5.0604e-04  2.1873e-04  2.6192e+03  0:08:05 4604

 Reversed flow on 26 faces (33.8% area) of pressure-outlet 7.

  iter  continuity  x-velocity  y-velocity     drag-co     time/iter
   397  3.8730e-01  4.6132e-04  2.0327e-04  2.6139e+03  0:06:28 4603

 Reversed flow on 26 faces (33.8% area) of pressure-outlet 7.
   398  3.4754e-01  4.2115e-04  1.8995e-04  2.6081e+03  0:05:10 4602

 Reversed flow on 26 faces (33.8% area) of pressure-outlet 7.
   399  3.2774e-01  3.9749e-04  1.7789e-04  2.6027e+03  0:04:08 4601

 Reversed flow on 26 faces (33.8% area) of pressure-outlet 7.
   400  3.2816e-01  3.9028e-04  1.6987e-04  2.5984e+03  0:03:19 4600

 Reversed flow on 27 faces (35.1% area) of pressure-outlet 7.
   401  3.3743e-01  4.0312e-04  1.6880e-04  2.5953e+03  0:02:39 4599

 Reversed flow on 26 faces (33.8% area) of pressure-outlet 7.
   402  3.5267e-01  4.2385e-04  1.7296e-04  2.5933e+03  0:02:07 4598

 Reversed flow on 26 faces (33.8% area) of pressure-outlet 7.
   403  3.6146e-01  4.3102e-04  1.7820e-04  2.5921e+03  0:01:42 4597

 Reversed flow on 25 faces (32.5% area) of pressure-outlet 7.
   404  3.5946e-01  4.1852e-04  1.7745e-04  2.5914e+03  0:01:21 4596

 Reversed flow on 25 faces (32.5% area) of pressure-outlet 7.
   405  3.4271e-01  3.9144e-04  1.6905e-04  2.5906e+03  0:16:24 4595

 Reversed flow on 26 faces (33.8% area) of pressure-outlet 7.
   406  3.1845e-01  3.6214e-04  1.5754e-04  2.5896e+03  0:13:07 4594

 Reversed flow on 26 faces (33.8% area) of pressure-outlet 7.
   407  2.8989e-01  3.3510e-04  1.4783e-04  2.5886e+03  0:10:29 4593

 Reversed flow on 26 faces (33.8% area) of pressure-outlet 7.

  iter  continuity  x-velocity  y-velocity     drag-co     time/iter
   408  2.6423e-01  3.1334e-04  1.3908e-04  2.5875e+03  0:08:23 4592

 Reversed flow on 27 faces (35.1% area) of pressure-outlet 7.
   409  2.5653e-01  3.0156e-04  1.3222e-04  2.5867e+03  0:06:43 4591

 Reversed flow on 26 faces (33.8% area) of pressure-outlet 7.
   410  2.6223e-01  3.0551e-04  1.3011e-04  2.5859e+03  0:05:22 4590

 Reversed flow on 26 faces (33.8% area) of pressure-outlet 7.
   411  2.7157e-01  3.1994e-04  1.3259e-04  2.5851e+03  0:04:18 4589

 Reversed flow on 26 faces (33.8% area) of pressure-outlet 7.
   412  2.7854e-01  3.2787e-04  1.3663e-04  2.5840e+03  0:03:26 4588

 Reversed flow on 25 faces (32.5% area) of pressure-outlet 7.
   413  2.7947e-01  3.2169e-04  1.3635e-04  2.5824e+03  0:02:45 4587

 Reversed flow on 26 faces (33.8% area) of pressure-outlet 7.
   414  2.6670e-01  3.0250e-04  1.3076e-04  2.5802e+03  0:02:12 4586

 Reversed flow on 26 faces (33.8% area) of pressure-outlet 7.
   415  2.4861e-01  2.7730e-04  1.2089e-04  2.5774e+03  0:01:45 4585

 Reversed flow on 26 faces (33.8% area) of pressure-outlet 7.
   416  2.2539e-01  2.5184e-04  1.1101e-04  2.5743e+03  0:01:24 4584

 Reversed flow on 26 faces (33.8% area) of pressure-outlet 7.
   417  2.0410e-01  2.3106e-04  1.0270e-04  2.5711e+03  0:01:07 4583

 Reversed flow on 27 faces (35.1% area) of pressure-outlet 7.
   418  1.9237e-01  2.1794e-04  9.6545e-05  2.5680e+03  0:00:54 4582

 Reversed flow on 27 faces (35.1% area) of pressure-outlet 7.

  iter  continuity  x-velocity  y-velocity     drag-co     time/iter
   419  1.9105e-01  2.1499e-04  9.2870e-05  2.5653e+03  0:00:43 4581

 Reversed flow on 27 faces (35.1% area) of pressure-outlet 7.
   420  1.9587e-01  2.2251e-04  9.3564e-05  2.5631e+03  0:00:35 4580

 Reversed flow on 26 faces (33.8% area) of pressure-outlet 7.
   421  2.0470e-01  2.3227e-04  9.6587e-05  2.5614e+03  0:00:28 4579

 Reversed flow on 26 faces (33.8% area) of pressure-outlet 7.
   422  2.0927e-01  2.3275e-04  9.7403e-05  2.5600e+03  0:15:38 4578

 Reversed flow on 26 faces (33.8% area) of pressure-outlet 7.
   423  2.0899e-01  2.2363e-04  9.4542e-05  2.5589e+03  0:12:30 4577

 Reversed flow on 26 faces (33.8% area) of pressure-outlet 7.
   424  1.9737e-01  2.0917e-04  8.8948e-05  2.5579e+03  0:10:00 4576

 Reversed flow on 26 faces (33.8% area) of pressure-outlet 7.
   425  1.8102e-01  1.9416e-04  8.2919e-05  2.5570e+03  0:08:00 4575

 Reversed flow on 26 faces (33.8% area) of pressure-outlet 7.
   426  1.6331e-01  1.7897e-04  7.8161e-05  2.5560e+03  0:06:24 4574

 Reversed flow on 26 faces (33.8% area) of pressure-outlet 7.
   427  1.4957e-01  1.6812e-04  7.4198e-05  2.5551e+03  0:05:07 4573

 Reversed flow on 26 faces (33.8% area) of pressure-outlet 7.
   428  1.4452e-01  1.6309e-04  7.2367e-05  2.5541e+03  0:04:05 4572

 Reversed flow on 26 faces (33.8% area) of pressure-outlet 7.
   429  1.4668e-01  1.6514e-04  7.2533e-05  2.5531e+03  0:03:16 4571

 Reversed flow on 26 faces (33.8% area) of pressure-outlet 7.

  iter  continuity  x-velocity  y-velocity     drag-co     time/iter
   430  1.5314e-01  1.7011e-04  7.4764e-05  2.5519e+03  0:02:37 4570

 Reversed flow on 26 faces (33.8% area) of pressure-outlet 7.
   431  1.5716e-01  1.7239e-04  7.7097e-05  2.5504e+03  0:17:19 4569

 Reversed flow on 26 faces (33.8% area) of pressure-outlet 7.
   432  1.5806e-01  1.6887e-04  7.7396e-05  2.5486e+03  0:13:51 4568

 Reversed flow on 26 faces (33.8% area) of pressure-outlet 7.
   433  1.5630e-01  1.5910e-04  7.5221e-05  2.5465e+03  0:11:05 4567

 Reversed flow on 26 faces (33.8% area) of pressure-outlet 7.
   434  1.4804e-01  1.4657e-04  7.0481e-05  2.5442e+03  0:08:52 4566

 Reversed flow on 27 faces (35.1% area) of pressure-outlet 7.
   435  1.3815e-01  1.3289e-04  6.4942e-05  2.5416e+03  0:07:05 4565

 Reversed flow on 27 faces (35.1% area) of pressure-outlet 7.
   436  1.2798e-01  1.2173e-04  6.0477e-05  2.5390e+03  0:05:40 4564

 Reversed flow on 26 faces (33.8% area) of pressure-outlet 7.
   437  1.2021e-01  1.1547e-04  5.6890e-05  2.5364e+03  0:04:32 4563

 Reversed flow on 26 faces (33.8% area) of pressure-outlet 7.
   438  1.1692e-01  1.1502e-04  5.4895e-05  2.5341e+03  0:03:38 4562

 Reversed flow on 26 faces (33.8% area) of pressure-outlet 7.
   439  1.1872e-01  1.1844e-04  5.4460e-05  2.5321e+03  0:02:54 4561

 Reversed flow on 26 faces (33.8% area) of pressure-outlet 7.
   440  1.2110e-01  1.2262e-04  5.4856e-05  2.5303e+03  0:02:19 4560

 Reversed flow on 26 faces (33.8% area) of pressure-outlet 7.

  iter  continuity  x-velocity  y-velocity     drag-co     time/iter
   441  1.2091e-01  1.2380e-04  5.4468e-05  2.5287e+03  0:01:51 4559

 Reversed flow on 26 faces (33.8% area) of pressure-outlet 7.
   442  1.1837e-01  1.2103e-04  5.3217e-05  2.5273e+03  0:01:29 4558

 Reversed flow on 26 faces (33.8% area) of pressure-outlet 7.
   443  1.1318e-01  1.1615e-04  5.1453e-05  2.5260e+03  0:01:11 4557

 Reversed flow on 26 faces (33.8% area) of pressure-outlet 7.
   444  1.0679e-01  1.1071e-04  4.9761e-05  2.5247e+03  0:00:57 4556

 Reversed flow on 26 faces (33.8% area) of pressure-outlet 7.
   445  1.0051e-01  1.0508e-04  4.8635e-05  2.5235e+03  0:00:46 4555

 Reversed flow on 26 faces (33.8% area) of pressure-outlet 7.
   446  9.5621e-02  1.0072e-04  4.7890e-05  2.5222e+03  0:00:36 4554

 Reversed flow on 26 faces (33.8% area) of pressure-outlet 7.
   447  9.4599e-02  9.9201e-05  4.7499e-05  2.5210e+03  0:15:40 4553

 Reversed flow on 26 faces (33.8% area) of pressure-outlet 7.
   448  9.6526e-02  1.0009e-04  4.7557e-05  2.5197e+03  0:12:32 4552

 Reversed flow on 26 faces (33.8% area) of pressure-outlet 7.
   449  9.9293e-02  1.0206e-04  4.8224e-05  2.5184e+03  0:10:01 4551

 Reversed flow on 26 faces (33.8% area) of pressure-outlet 7.
   450  1.0082e-01  1.0238e-04  4.8706e-05  2.5171e+03  0:08:01 4550

 Reversed flow on 26 faces (33.8% area) of pressure-outlet 7.
   451  1.0025e-01  1.0024e-04  4.8346e-05  2.5158e+03  0:06:25 4549

 Reversed flow on 26 faces (33.8% area) of pressure-outlet 7.

  iter  continuity  x-velocity  y-velocity     drag-co     time/iter
   452  9.7639e-02  9.5773e-05  4.6915e-05  2.5145e+03  0:05:08 4548

 Reversed flow on 26 faces (33.8% area) of pressure-outlet 7.
   453  9.2688e-02  8.9814e-05  4.4482e-05  2.5133e+03  0:04:06 4547

 Reversed flow on 26 faces (33.8% area) of pressure-outlet 7.
   454  8.6424e-02  8.3399e-05  4.1331e-05  2.5122e+03  0:03:17 4546

 Reversed flow on 26 faces (33.8% area) of pressure-outlet 7.
   455  7.9025e-02  7.7250e-05  3.8150e-05  2.5112e+03  0:02:37 4545

 Reversed flow on 26 faces (33.8% area) of pressure-outlet 7.
   456  7.2922e-02  7.3508e-05  3.5665e-05  2.5103e+03  0:02:06 4544

 Reversed flow on 26 faces (33.8% area) of pressure-outlet 7.
   457  6.8128e-02  7.1985e-05  3.4002e-05  2.5095e+03  0:01:41 4543

 Reversed flow on 26 faces (33.8% area) of pressure-outlet 7.
   458  6.6251e-02  7.2978e-05  3.3244e-05  2.5088e+03  0:01:21 4542

 Reversed flow on 26 faces (33.8% area) of pressure-outlet 7.
   459  6.6173e-02  7.5396e-05  3.3391e-05  2.5082e+03  0:01:04 4541

 Reversed flow on 26 faces (33.8% area) of pressure-outlet 7.
   460  6.6832e-02  7.7197e-05  3.4217e-05  2.5077e+03  0:00:52 4540

 Reversed flow on 26 faces (33.8% area) of pressure-outlet 7.
   461  6.7337e-02  7.7587e-05  3.4703e-05  2.5072e+03  0:00:41 4539

 Reversed flow on 26 faces (33.8% area) of pressure-outlet 7.
   462  6.7048e-02  7.6668e-05  3.4448e-05  2.5068e+03  0:00:33 4538

 Reversed flow on 26 faces (33.8% area) of pressure-outlet 7.

  iter  continuity  x-velocity  y-velocity     drag-co     time/iter
   463  6.5794e-02  7.4936e-05  3.3904e-05  2.5063e+03  0:15:34 4537

 Reversed flow on 26 faces (33.8% area) of pressure-outlet 7.
   464  6.4391e-02  7.2938e-05  3.3273e-05  2.5059e+03  0:12:27 4536

 Reversed flow on 26 faces (33.8% area) of pressure-outlet 7.
   465  6.3038e-02  7.1372e-05  3.2853e-05  2.5054e+03  0:09:57 4535

 Reversed flow on 26 faces (33.8% area) of pressure-outlet 7.
   466  6.2023e-02  7.1060e-05  3.2243e-05  2.5048e+03  0:07:58 4534

 Reversed flow on 26 faces (33.8% area) of pressure-outlet 7.
   467  6.1836e-02  7.1867e-05  3.2019e-05  2.5042e+03  0:06:22 4533

 Reversed flow on 26 faces (33.8% area) of pressure-outlet 7.
   468  6.1859e-02  7.2848e-05  3.1947e-05  2.5034e+03  0:05:06 4532

 Reversed flow on 26 faces (33.8% area) of pressure-outlet 7.
   469  6.1838e-02  7.3155e-05  3.2004e-05  2.5026e+03  0:04:04 4531

 Reversed flow on 26 faces (33.8% area) of pressure-outlet 7.
   470  6.1280e-02  7.2461e-05  3.1796e-05  2.5017e+03  0:03:16 4530

 Reversed flow on 26 faces (33.8% area) of pressure-outlet 7.
   471  6.0581e-02  7.0992e-05  3.1329e-05  2.5007e+03  0:02:36 4529

 Reversed flow on 26 faces (33.8% area) of pressure-outlet 7.
   472  5.9386e-02  6.8858e-05  3.0565e-05  2.4997e+03  0:02:05 4528

 Reversed flow on 26 faces (33.8% area) of pressure-outlet 7.
   473  5.8540e-02  6.6462e-05  2.9746e-05  2.4986e+03  0:01:40 4527

 Reversed flow on 26 faces (33.8% area) of pressure-outlet 7.

  iter  continuity  x-velocity  y-velocity     drag-co     time/iter
   474  5.6857e-02  6.3956e-05  2.8643e-05  2.4976e+03  0:01:20 4526

 Reversed flow on 26 faces (33.8% area) of pressure-outlet 7.
   475  5.5481e-02  6.1645e-05  2.7539e-05  2.4966e+03  0:01:04 4525

 Reversed flow on 26 faces (33.8% area) of pressure-outlet 7.
   476  5.3759e-02  5.9944e-05  2.6512e-05  2.4956e+03  0:00:51 4524

 Reversed flow on 26 faces (33.8% area) of pressure-outlet 7.
   477  5.2553e-02  5.9374e-05  2.5771e-05  2.4947e+03  0:00:41 4523

 Reversed flow on 26 faces (33.8% area) of pressure-outlet 7.
   478  5.1856e-02  5.9606e-05  2.5425e-05  2.4939e+03  0:00:33 4522

 Reversed flow on 26 faces (33.8% area) of pressure-outlet 7.
   479  5.2123e-02  6.0046e-05  2.5393e-05  2.4931e+03  0:15:30 4521

 Reversed flow on 26 faces (33.8% area) of pressure-outlet 7.
   480  5.2277e-02  6.0415e-05  2.5562e-05  2.4924e+03  0:12:24 4520

 Reversed flow on 26 faces (33.8% area) of pressure-outlet 7.
   481  5.2216e-02  6.0535e-05  2.5777e-05  2.4918e+03  0:09:55 4519

 Reversed flow on 26 faces (33.8% area) of pressure-outlet 7.
   482  5.2104e-02  6.0316e-05  2.5838e-05  2.4913e+03  0:07:56 4518

 Reversed flow on 26 faces (33.8% area) of pressure-outlet 7.
   483  5.1439e-02  5.9987e-05  2.5980e-05  2.4907e+03  0:06:21 4517

 Reversed flow on 26 faces (33.8% area) of pressure-outlet 7.
   484  5.0949e-02  5.9475e-05  2.6077e-05  2.4902e+03  0:05:05 4516

 Reversed flow on 26 faces (33.8% area) of pressure-outlet 7.

  iter  continuity  x-velocity  y-velocity     drag-co     time/iter
   485  5.0621e-02  5.9005e-05  2.6104e-05  2.4898e+03  0:04:04 4515

 Reversed flow on 26 faces (33.8% area) of pressure-outlet 7.
   486  5.0532e-02  5.8711e-05  2.6161e-05  2.4893e+03  0:03:15 4514

 Reversed flow on 26 faces (33.8% area) of pressure-outlet 7.
   487  5.0372e-02  5.8580e-05  2.6183e-05  2.4888e+03  0:02:36 4513

 Reversed flow on 26 faces (33.8% area) of pressure-outlet 7.
   488  5.0179e-02  5.8447e-05  2.6217e-05  2.4884e+03  0:02:05 4512

 Reversed flow on 26 faces (33.8% area) of pressure-outlet 7.
   489  5.0270e-02  5.8229e-05  2.6383e-05  2.4879e+03  0:01:40 4511

 Reversed flow on 26 faces (33.8% area) of pressure-outlet 7.
   490  5.0151e-02  5.7985e-05  2.6371e-05  2.4875e+03  0:01:20 4510

 Reversed flow on 26 faces (33.8% area) of pressure-outlet 7.
   491  5.0792e-02  5.7739e-05  2.6299e-05  2.4870e+03  0:01:04 4509

 Reversed flow on 26 faces (33.8% area) of pressure-outlet 7.
   492  4.9461e-02  5.7505e-05  2.6042e-05  2.4866e+03  0:00:51 4508

 Reversed flow on 26 faces (33.8% area) of pressure-outlet 7.
   493  4.8665e-02  5.7227e-05  2.5829e-05  2.4861e+03  0:00:41 4507

 Reversed flow on 26 faces (33.8% area) of pressure-outlet 7.
   494  4.9721e-02  5.6950e-05  2.5707e-05  2.4857e+03  0:00:33 4506

 Reversed flow on 26 faces (33.8% area) of pressure-outlet 7.
   495  4.9223e-02  5.6773e-05  2.5636e-05  2.4854e+03  0:00:26 4505

 Reversed flow on 26 faces (33.8% area) of pressure-outlet 7.

  iter  continuity  x-velocity  y-velocity     drag-co     time/iter
   496  4.8791e-02  5.6603e-05  2.5602e-05  2.4850e+03  0:15:22 4504

 Reversed flow on 26 faces (33.8% area) of pressure-outlet 7.
   497  4.8962e-02  5.6578e-05  2.5620e-05  2.4846e+03  0:12:17 4503

 Reversed flow on 26 faces (33.8% area) of pressure-outlet 7.
   498  4.8844e-02  5.6674e-05  2.5607e-05  2.4843e+03  0:09:50 4502

 Reversed flow on 26 faces (33.8% area) of pressure-outlet 7.
   499  4.8487e-02  5.6687e-05  2.5464e-05  2.4840e+03  0:07:52 4501

 Reversed flow on 26 faces (33.8% area) of pressure-outlet 7.
   500  4.7765e-02  5.6668e-05  2.5207e-05  2.4838e+03  0:06:17 4500

 Reversed flow on 26 faces (33.8% area) of pressure-outlet 7.
   501  4.6997e-02  5.6593e-05  2.5083e-05  2.4835e+03  0:05:02 4499

 Reversed flow on 26 faces (33.8% area) of pressure-outlet 7.
   502  4.6920e-02  5.6595e-05  2.5068e-05  2.4833e+03  0:04:01 4498

 Reversed flow on 26 faces (33.8% area) of pressure-outlet 7.
   503  4.7004e-02  5.6599e-05  2.4939e-05  2.4831e+03  0:03:13 4497

 Reversed flow on 26 faces (33.8% area) of pressure-outlet 7.
   504  4.7054e-02  5.6598e-05  2.4905e-05  2.4829e+03  0:02:34 4496

 Reversed flow on 26 faces (33.8% area) of pressure-outlet 7.
   505  4.7286e-02  5.6636e-05  2.5080e-05  2.4827e+03  0:02:03 4495

 Reversed flow on 26 faces (33.8% area) of pressure-outlet 7.
   506  4.7611e-02  5.6674e-05  2.5323e-05  2.4825e+03  0:01:39 4494

 Reversed flow on 26 faces (33.8% area) of pressure-outlet 7.

  iter  continuity  x-velocity  y-velocity     drag-co     time/iter
   507  4.7919e-02  5.6720e-05  2.5452e-05  2.4824e+03  0:01:19 4493

 Reversed flow on 26 faces (33.8% area) of pressure-outlet 7.
   508  4.8071e-02  5.6815e-05  2.5664e-05  2.4823e+03  0:01:03 4492

 Reversed flow on 26 faces (33.8% area) of pressure-outlet 7.
   509  4.8017e-02  5.7023e-05  2.5863e-05  2.4822e+03  0:00:51 4491

 Reversed flow on 26 faces (33.8% area) of pressure-outlet 7.
   510  4.8132e-02  5.7250e-05  2.5998e-05  2.4821e+03  0:00:40 4490

 Reversed flow on 26 faces (33.8% area) of pressure-outlet 7.
   511  4.8217e-02  5.7454e-05  2.6212e-05  2.4820e+03  0:00:32 4489

 Reversed flow on 26 faces (33.8% area) of pressure-outlet 7.
   512  4.8406e-02  5.7663e-05  2.6461e-05  2.4819e+03  0:15:23 4488

 Reversed flow on 26 faces (33.8% area) of pressure-outlet 7.
   513  4.8638e-02  5.7943e-05  2.6709e-05  2.4819e+03  0:12:19 4487

 Reversed flow on 26 faces (33.8% area) of pressure-outlet 7.
   514  4.8871e-02  5.8151e-05  2.6998e-05  2.4818e+03  0:09:51 4486

 Reversed flow on 26 faces (33.8% area) of pressure-outlet 7.
   515  4.9219e-02  5.8173e-05  2.7253e-05  2.4818e+03  0:07:52 4485

 Reversed flow on 26 faces (33.8% area) of pressure-outlet 7.
   516  4.9652e-02  5.8110e-05  2.7450e-05  2.4817e+03  0:06:18 4484

 Reversed flow on 26 faces (33.8% area) of pressure-outlet 7.
   517  4.9855e-02  5.7838e-05  2.7503e-05  2.4817e+03  0:05:02 4483

 Reversed flow on 26 faces (33.8% area) of pressure-outlet 7.

  iter  continuity  x-velocity  y-velocity     drag-co     time/iter
   518  4.9499e-02  5.7315e-05  2.7260e-05  2.4816e+03  0:04:02 4482

 Reversed flow on 26 faces (33.8% area) of pressure-outlet 7.
   519  4.9008e-02  5.6710e-05  2.7057e-05  2.4815e+03  0:03:13 4481

 Reversed flow on 26 faces (33.8% area) of pressure-outlet 7.
   520  4.8511e-02  5.5994e-05  2.6945e-05  2.4814e+03  0:02:35 4480

 Reversed flow on 26 faces (33.8% area) of pressure-outlet 7.
   521  4.8255e-02  5.5243e-05  2.6768e-05  2.4813e+03  0:02:04 4479

 Reversed flow on 26 faces (33.8% area) of pressure-outlet 7.
   522  4.8112e-02  5.4522e-05  2.6575e-05  2.4812e+03  0:01:39 4478

 Reversed flow on 26 faces (33.8% area) of pressure-outlet 7.
   523  4.7675e-02  5.3909e-05  2.6374e-05  2.4811e+03  0:01:19 4477

 Reversed flow on 26 faces (33.8% area) of pressure-outlet 7.
   524  4.7208e-02  5.3573e-05  2.6219e-05  2.4811e+03  0:01:03 4476

 Reversed flow on 26 faces (33.8% area) of pressure-outlet 7.
   525  4.7015e-02  5.3503e-05  2.6201e-05  2.4810e+03  0:00:51 4475

 Reversed flow on 26 faces (33.8% area) of pressure-outlet 7.
   526  4.7103e-02  5.3592e-05  2.6292e-05  2.4810e+03  0:00:40 4474

 Reversed flow on 26 faces (33.8% area) of pressure-outlet 7.
   527  4.7414e-02  5.3757e-05  2.6481e-05  2.4810e+03  0:15:27 4473

 Reversed flow on 26 faces (33.8% area) of pressure-outlet 7.
   528  4.7509e-02  5.3747e-05  2.6632e-05  2.4811e+03  0:12:21 4472

 Reversed flow on 26 faces (33.8% area) of pressure-outlet 7.

  iter  continuity  x-velocity  y-velocity     drag-co     time/iter
   529  4.7720e-02  5.3917e-05  2.6873e-05  2.4811e+03  0:09:53 4471

 Reversed flow on 26 faces (33.8% area) of pressure-outlet 7.
   530  4.7997e-02  5.4205e-05  2.7178e-05  2.4811e+03  0:07:54 4470

 Reversed flow on 26 faces (33.8% area) of pressure-outlet 7.
   531  4.8319e-02  5.4359e-05  2.7405e-05  2.4812e+03  0:06:19 4469

 Reversed flow on 26 faces (33.8% area) of pressure-outlet 7.
   532  4.8682e-02  5.4422e-05  2.7552e-05  2.4813e+03  0:05:03 4468

 Reversed flow on 26 faces (33.8% area) of pressure-outlet 7.
   533  4.8927e-02  5.4459e-05  2.7589e-05  2.4814e+03  0:04:03 4467

 Reversed flow on 26 faces (33.8% area) of pressure-outlet 7.
   534  4.8928e-02  5.4480e-05  2.7601e-05  2.4814e+03  0:03:14 4466

 Reversed flow on 26 faces (33.8% area) of pressure-outlet 7.
   535  4.8619e-02  5.4374e-05  2.7437e-05  2.4815e+03  0:02:35 4465

 Reversed flow on 26 faces (33.8% area) of pressure-outlet 7.
   536  4.8059e-02  5.4189e-05  2.7385e-05  2.4816e+03  0:16:57 4464

 Reversed flow on 26 faces (33.8% area) of pressure-outlet 7.
   537  4.7881e-02  5.4152e-05  2.7325e-05  2.4817e+03  0:13:33 4463

 Reversed flow on 26 faces (33.8% area) of pressure-outlet 7.
   538  4.7709e-02  5.4022e-05  2.7285e-05  2.4818e+03  0:10:51 4462

 Reversed flow on 26 faces (33.8% area) of pressure-outlet 7.
   539  4.7594e-02  5.3996e-05  2.7258e-05  2.4819e+03  0:08:40 4461

 Reversed flow on 26 faces (33.8% area) of pressure-outlet 7.

  iter  continuity  x-velocity  y-velocity     drag-co     time/iter
   540  4.7833e-02  5.3953e-05  2.7293e-05  2.4820e+03  0:06:56 4460

 Reversed flow on 26 faces (33.8% area) of pressure-outlet 7.
   541  4.7898e-02  5.3891e-05  2.7291e-05  2.4820e+03  0:05:33 4459

 Reversed flow on 26 faces (33.8% area) of pressure-outlet 7.
   542  4.7894e-02  5.3893e-05  2.7281e-05  2.4821e+03  0:04:26 4458

 Reversed flow on 26 faces (33.8% area) of pressure-outlet 7.
   543  4.8058e-02  5.3906e-05  2.7333e-05  2.4822e+03  0:03:33 4457

 Reversed flow on 26 faces (33.8% area) of pressure-outlet 7.
   544  4.8290e-02  5.3944e-05  2.7342e-05  2.4824e+03  0:02:50 4456

 Reversed flow on 26 faces (33.8% area) of pressure-outlet 7.
   545  4.8559e-02  5.4117e-05  2.7347e-05  2.4825e+03  0:02:16 4455

 Reversed flow on 26 faces (33.8% area) of pressure-outlet 7.
   546  4.8745e-02  5.4350e-05  2.7353e-05  2.4827e+03  0:01:49 4454

 Reversed flow on 26 faces (33.8% area) of pressure-outlet 7.
   547  4.8852e-02  5.4564e-05  2.7485e-05  2.4829e+03  0:01:27 4453

 Reversed flow on 26 faces (33.8% area) of pressure-outlet 7.
   548  4.8944e-02  5.4862e-05  2.7610e-05  2.4831e+03  0:01:10 4452

 Reversed flow on 26 faces (33.8% area) of pressure-outlet 7.
   549  4.9182e-02  5.5234e-05  2.7735e-05  2.4834e+03  0:00:56 4451

 Reversed flow on 26 faces (33.8% area) of pressure-outlet 7.
   550  4.9614e-02  5.5714e-05  2.8079e-05  2.4836e+03  0:15:35 4450

 Reversed flow on 26 faces (33.8% area) of pressure-outlet 7.

  iter  continuity  x-velocity  y-velocity     drag-co     time/iter
   551  5.0006e-02  5.6267e-05  2.8370e-05  2.4839e+03  0:12:28 4449

 Reversed flow on 26 faces (33.8% area) of pressure-outlet 7.
   552  5.0292e-02  5.6871e-05  2.8524e-05  2.4843e+03  0:09:58 4448

 Reversed flow on 26 faces (33.8% area) of pressure-outlet 7.
   553  5.0673e-02  5.7333e-05  2.8761e-05  2.4847e+03  0:07:58 4447

 Reversed flow on 26 faces (33.8% area) of pressure-outlet 7.
   554  5.0893e-02  5.7839e-05  2.9010e-05  2.4851e+03  0:06:22 4446

 Reversed flow on 26 faces (33.8% area) of pressure-outlet 7.
   555  5.1198e-02  5.8283e-05  2.9351e-05  2.4855e+03  0:05:06 4445

 Reversed flow on 26 faces (33.8% area) of pressure-outlet 7.
   556  5.1779e-02  5.8829e-05  2.9686e-05  2.4861e+03  0:04:05 4444

 Reversed flow on 26 faces (33.8% area) of pressure-outlet 7.
   557  5.2750e-02  5.9326e-05  3.0111e-05  2.4866e+03  0:03:16 4443

 Reversed flow on 26 faces (33.8% area) of pressure-outlet 7.
   558  5.3514e-02  5.9685e-05  3.0435e-05  2.4871e+03  0:02:37 4442

 Reversed flow on 26 faces (33.8% area) of pressure-outlet 7.
   559  5.4275e-02  5.9968e-05  3.0691e-05  2.4877e+03  0:02:05 4441

 Reversed flow on 26 faces (33.8% area) of pressure-outlet 7.
   560  5.5073e-02  6.0078e-05  3.0946e-05  2.4883e+03  0:01:40 4440

 Reversed flow on 26 faces (33.8% area) of pressure-outlet 7.
   561  5.5719e-02  6.0076e-05  3.1105e-05  2.4889e+03  0:01:20 4439

 Reversed flow on 26 faces (33.8% area) of pressure-outlet 7.

  iter  continuity  x-velocity  y-velocity     drag-co     time/iter
   562  5.6218e-02  5.9974e-05  3.1165e-05  2.4896e+03  0:01:04 4438

 Reversed flow on 26 faces (33.8% area) of pressure-outlet 7.
   563  5.6516e-02  5.9818e-05  3.1177e-05  2.4904e+03  0:00:51 4437

 Reversed flow on 26 faces (33.8% area) of pressure-outlet 7.
[...]

  iter  continuity  x-velocity  y-velocity     drag-co     time/iter
  4874  5.3239e-02  5.0568e-05  2.6053e-05  2.4628e+03  0:00:07  126

 Reversed flow on 26 faces (33.8% area) of pressure-outlet 7.
  4875  5.2525e-02  5.0091e-05  2.6032e-05  2.4618e+03  0:00:30  125

 Reversed flow on 26 faces (33.8% area) of pressure-outlet 7.
  4876  5.2281e-02  4.9802e-05  2.6045e-05  2.4608e+03  0:00:24  124

 Reversed flow on 26 faces (33.8% area) of pressure-outlet 7.
  4877  5.2255e-02  4.9500e-05  2.6091e-05  2.4599e+03  0:00:19  123

 Reversed flow on 26 faces (33.8% area) of pressure-outlet 7.
  4878  5.2121e-02  4.9121e-05  2.6199e-05  2.4589e+03  0:00:15  122

 Reversed flow on 26 faces (33.8% area) of pressure-outlet 7.
  4879  5.2037e-02  4.8676e-05  2.6332e-05  2.4580e+03  0:00:12  121

 Reversed flow on 26 faces (33.8% area) of pressure-outlet 7.
  4880  5.2146e-02  4.8217e-05  2.6426e-05  2.4572e+03  0:00:10  120

 Reversed flow on 26 faces (33.8% area) of pressure-outlet 7.
  4881  5.2467e-02  4.7938e-05  2.6442e-05  2.4563e+03  0:00:08  119

 Reversed flow on 26 faces (33.8% area) of pressure-outlet 7.
  4882  5.2658e-02  4.7766e-05  2.6233e-05  2.4554e+03  0:00:06  118

 Reversed flow on 26 faces (33.8% area) of pressure-outlet 7.
  4883  5.2686e-02  4.7571e-05  2.6130e-05  2.4545e+03  0:00:05  117

 Reversed flow on 26 faces (33.8% area) of pressure-outlet 7.
  4884  5.2607e-02  4.7539e-05  2.5886e-05  2.4536e+03  0:00:27  116

 Reversed flow on 26 faces (33.8% area) of pressure-outlet 7.

  iter  continuity  x-velocity  y-velocity     drag-co     time/iter
  4885  5.2633e-02  4.7517e-05  2.5625e-05  2.4528e+03  0:00:21  115

 Reversed flow on 26 faces (33.8% area) of pressure-outlet 7.
  4886  5.2683e-02  4.7540e-05  2.5307e-05  2.4519e+03  0:00:17  114

 Reversed flow on 26 faces (33.8% area) of pressure-outlet 7.
  4887  5.2971e-02  4.7644e-05  2.5039e-05  2.4511e+03  0:00:13  113

 Reversed flow on 26 faces (33.8% area) of pressure-outlet 7.
  4888  5.3445e-02  4.7754e-05  2.4902e-05  2.4503e+03  0:00:11  112

 Reversed flow on 26 faces (33.8% area) of pressure-outlet 7.
  4889  5.3293e-02  4.7853e-05  2.4699e-05  2.4496e+03  0:00:08  111

 Reversed flow on 26 faces (33.8% area) of pressure-outlet 7.
  4890  5.2882e-02  4.7881e-05  2.4461e-05  2.4490e+03  0:00:07  110

 Reversed flow on 26 faces (33.8% area) of pressure-outlet 7.
  4891  5.2573e-02  4.7772e-05  2.4137e-05  2.4484e+03  0:00:05  109

 Reversed flow on 26 faces (33.8% area) of pressure-outlet 7.
  4892  5.2281e-02  4.7700e-05  2.3785e-05  2.4479e+03  0:00:26  108

 Reversed flow on 26 faces (33.8% area) of pressure-outlet 7.
  4893  5.1563e-02  4.7532e-05  2.3436e-05  2.4475e+03  0:00:20  107

 Reversed flow on 26 faces (33.8% area) of pressure-outlet 7.
  4894  5.0546e-02  4.7336e-05  2.2994e-05  2.4472e+03  0:00:16  106

 Reversed flow on 26 faces (33.8% area) of pressure-outlet 7.
  4895  4.9492e-02  4.7239e-05  2.2499e-05  2.4469e+03  0:00:13  105

 Reversed flow on 26 faces (33.8% area) of pressure-outlet 7.

  iter  continuity  x-velocity  y-velocity     drag-co     time/iter
  4896  4.8086e-02  4.7111e-05  2.2045e-05  2.4467e+03  0:00:10  104

 Reversed flow on 26 faces (33.8% area) of pressure-outlet 7.
  4897  4.7016e-02  4.6984e-05  2.1601e-05  2.4464e+03  0:00:08  103

 Reversed flow on 26 faces (33.8% area) of pressure-outlet 7.
  4898  4.6117e-02  4.6870e-05  2.1284e-05  2.4462e+03  0:00:06  102

 Reversed flow on 26 faces (33.8% area) of pressure-outlet 7.
  4899  4.5120e-02  4.6708e-05  2.1040e-05  2.4459e+03  0:00:05  101

 Reversed flow on 26 faces (33.8% area) of pressure-outlet 7.
  4900  4.4073e-02  4.6503e-05  2.0855e-05  2.4456e+03  0:00:24  100

 Reversed flow on 26 faces (33.8% area) of pressure-outlet 7.
  4901  4.2922e-02  4.6325e-05  2.0633e-05  2.4454e+03  0:00:19   99

 Reversed flow on 26 faces (33.8% area) of pressure-outlet 7.
  4902  4.1782e-02  4.6046e-05  2.0373e-05  2.4451e+03  0:00:15   98

 Reversed flow on 26 faces (33.8% area) of pressure-outlet 7.
  4903  4.0682e-02  4.5750e-05  2.0195e-05  2.4448e+03  0:00:12   97

 Reversed flow on 26 faces (33.8% area) of pressure-outlet 7.
  4904  3.9898e-02  4.5450e-05  1.9946e-05  2.4444e+03  0:00:09   96

 Reversed flow on 26 faces (33.8% area) of pressure-outlet 7.
  4905  3.9254e-02  4.5134e-05  1.9767e-05  2.4441e+03  0:00:07   95

 Reversed flow on 26 faces (33.8% area) of pressure-outlet 7.
  4906  3.8584e-02  4.4845e-05  1.9595e-05  2.4437e+03  0:00:06   94

 Reversed flow on 26 faces (33.8% area) of pressure-outlet 7.

  iter  continuity  x-velocity  y-velocity     drag-co     time/iter
  4907  3.8224e-02  4.4562e-05  1.9458e-05  2.4433e+03  0:00:05   93

 Reversed flow on 26 faces (33.8% area) of pressure-outlet 7.
  4908  3.7957e-02  4.4263e-05  1.9380e-05  2.4429e+03  0:00:04   92

 Reversed flow on 26 faces (33.8% area) of pressure-outlet 7.
  4909  3.7446e-02  4.3980e-05  1.9311e-05  2.4425e+03  0:00:21   91

 Reversed flow on 26 faces (33.8% area) of pressure-outlet 7.
  4910  3.6913e-02  4.3727e-05  1.9266e-05  2.4421e+03  0:00:17   90

 Reversed flow on 26 faces (33.8% area) of pressure-outlet 7.
  4911  3.6662e-02  4.3446e-05  1.9202e-05  2.4418e+03  0:00:13   89

 Reversed flow on 26 faces (33.8% area) of pressure-outlet 7.
  4912  3.6541e-02  4.3213e-05  1.9214e-05  2.4414e+03  0:00:10   88

 Reversed flow on 26 faces (33.8% area) of pressure-outlet 7.
  4913  3.6400e-02  4.3048e-05  1.9289e-05  2.4410e+03  0:00:08   87

 Reversed flow on 26 faces (33.8% area) of pressure-outlet 7.
  4914  3.6515e-02  4.2951e-05  1.9346e-05  2.4406e+03  0:00:07   86

 Reversed flow on 26 faces (33.8% area) of pressure-outlet 7.
  4915  3.6602e-02  4.2888e-05  1.9382e-05  2.4402e+03  0:00:05   85

 Reversed flow on 26 faces (33.8% area) of pressure-outlet 7.
  4916  3.6532e-02  4.2810e-05  1.9475e-05  2.4399e+03  0:00:04   84

 Reversed flow on 26 faces (33.8% area) of pressure-outlet 7.
  4917  3.6555e-02  4.2676e-05  1.9588e-05  2.4395e+03  0:00:20   83

 Reversed flow on 26 faces (33.8% area) of pressure-outlet 7.

  iter  continuity  x-velocity  y-velocity     drag-co     time/iter
  4918  3.6790e-02  4.2525e-05  1.9752e-05  2.4391e+03  0:00:16   82

 Reversed flow on 26 faces (33.8% area) of pressure-outlet 7.
  4919  3.6966e-02  4.2313e-05  1.9887e-05  2.4388e+03  0:00:12   81

 Reversed flow on 26 faces (33.8% area) of pressure-outlet 7.
  4920  3.7181e-02  4.2093e-05  1.9935e-05  2.4384e+03  0:00:10   80

 Reversed flow on 26 faces (33.8% area) of pressure-outlet 7.
  4921  3.7228e-02  4.1741e-05  1.9908e-05  2.4380e+03  0:00:08   79

 Reversed flow on 26 faces (33.8% area) of pressure-outlet 7.
  4922  3.7541e-02  4.1336e-05  1.9898e-05  2.4377e+03  0:00:06   78

 Reversed flow on 26 faces (33.8% area) of pressure-outlet 7.
  4923  3.7552e-02  4.0961e-05  1.9851e-05  2.4373e+03  0:00:05   77

 Reversed flow on 26 faces (33.8% area) of pressure-outlet 7.
  4924  3.7446e-02  4.0608e-05  1.9785e-05  2.4370e+03  0:00:04   76

 Reversed flow on 26 faces (33.8% area) of pressure-outlet 7.
  4925  3.7509e-02  4.0330e-05  1.9704e-05  2.4367e+03  0:00:18   75

 Reversed flow on 26 faces (33.8% area) of pressure-outlet 7.
  4926  3.7668e-02  4.0154e-05  1.9624e-05  2.4363e+03  0:00:14   74

 Reversed flow on 26 faces (33.8% area) of pressure-outlet 7.
  4927  3.7705e-02  4.0026e-05  1.9538e-05  2.4360e+03  0:00:11   73

 Reversed flow on 26 faces (33.8% area) of pressure-outlet 7.
  4928  3.7585e-02  3.9901e-05  1.9389e-05  2.4357e+03  0:00:09   72

 Reversed flow on 26 faces (33.8% area) of pressure-outlet 7.

  iter  continuity  x-velocity  y-velocity     drag-co     time/iter
  4929  3.7407e-02  3.9785e-05  1.9298e-05  2.4354e+03  0:00:07   71

 Reversed flow on 26 faces (33.8% area) of pressure-outlet 7.
  4930  3.7220e-02  3.9711e-05  1.9226e-05  2.4352e+03  0:00:06   70

 Reversed flow on 26 faces (33.8% area) of pressure-outlet 7.
  4931  3.7040e-02  3.9623e-05  1.9141e-05  2.4349e+03  0:00:04   69

 Reversed flow on 26 faces (33.8% area) of pressure-outlet 7.
  4932  3.6816e-02  3.9537e-05  1.9106e-05  2.4346e+03  0:00:03   68

 Reversed flow on 26 faces (33.8% area) of pressure-outlet 7.
  4933  3.6591e-02  3.9462e-05  1.9085e-05  2.4344e+03  0:00:16   67

 Reversed flow on 26 faces (33.8% area) of pressure-outlet 7.
  4934  3.6472e-02  3.9363e-05  1.9085e-05  2.4341e+03  0:00:13   66

 Reversed flow on 26 faces (33.8% area) of pressure-outlet 7.
  4935  3.7404e-02  3.9307e-05  1.9078e-05  2.4339e+03  0:00:10   65

 Reversed flow on 26 faces (33.8% area) of pressure-outlet 7.
  4936  3.7025e-02  3.9259e-05  1.9042e-05  2.4336e+03  0:00:08   64

 Reversed flow on 26 faces (33.8% area) of pressure-outlet 7.
  4937  3.6146e-02  3.9198e-05  1.8993e-05  2.4334e+03  0:00:06   63

 Reversed flow on 26 faces (33.8% area) of pressure-outlet 7.
  4938  3.5858e-02  3.9183e-05  1.8954e-05  2.4332e+03  0:00:05   62

 Reversed flow on 26 faces (33.8% area) of pressure-outlet 7.
  4939  3.5924e-02  3.9166e-05  1.8904e-05  2.4330e+03  0:00:04   61

 Reversed flow on 26 faces (33.8% area) of pressure-outlet 7.

  iter  continuity  x-velocity  y-velocity     drag-co     time/iter
  4940  3.6640e-02  3.9135e-05  1.8946e-05  2.4328e+03  0:00:03   60

 Reversed flow on 26 faces (33.8% area) of pressure-outlet 7.
  4941  3.6082e-02  3.9120e-05  1.8970e-05  2.4327e+03  0:00:02   59

 Reversed flow on 26 faces (33.8% area) of pressure-outlet 7.
  4942  3.5601e-02  3.9148e-05  1.8858e-05  2.4325e+03  0:00:13   58

 Reversed flow on 26 faces (33.8% area) of pressure-outlet 7.
  4943  3.5430e-02  3.9210e-05  1.8876e-05  2.4324e+03  0:00:11   57

 Reversed flow on 26 faces (33.8% area) of pressure-outlet 7.
  4944  3.5378e-02  3.9347e-05  1.9012e-05  2.4322e+03  0:00:08   56

 Reversed flow on 26 faces (33.8% area) of pressure-outlet 7.
  4945  3.5700e-02  3.9565e-05  1.9158e-05  2.4321e+03  0:00:07   55

 Reversed flow on 26 faces (33.8% area) of pressure-outlet 7.
  4946  3.5822e-02  3.9819e-05  1.9308e-05  2.4320e+03  0:00:05   54

 Reversed flow on 26 faces (33.8% area) of pressure-outlet 7.
  4947  3.5824e-02  4.0096e-05  1.9490e-05  2.4319e+03  0:00:04   53

 Reversed flow on 26 faces (33.8% area) of pressure-outlet 7.
  4948  3.5988e-02  4.0431e-05  1.9671e-05  2.4319e+03  0:00:03   52

 Reversed flow on 26 faces (33.8% area) of pressure-outlet 7.
  4949  3.6324e-02  4.0796e-05  1.9928e-05  2.4319e+03  0:00:02   51

 Reversed flow on 26 faces (33.8% area) of pressure-outlet 7.
  4950  3.6568e-02  4.1132e-05  2.0171e-05  2.4320e+03  0:00:12   50

 Reversed flow on 26 faces (33.8% area) of pressure-outlet 7.

  iter  continuity  x-velocity  y-velocity     drag-co     time/iter
  4951  3.7030e-02  4.1481e-05  2.0492e-05  2.4320e+03  0:00:09   49

 Reversed flow on 26 faces (33.8% area) of pressure-outlet 7.
  4952  3.7599e-02  4.1808e-05  2.0818e-05  2.4321e+03  0:00:07   48

 Reversed flow on 26 faces (33.8% area) of pressure-outlet 7.
  4953  3.8227e-02  4.2103e-05  2.1149e-05  2.4322e+03  0:00:06   47

 Reversed flow on 26 faces (33.8% area) of pressure-outlet 7.
  4954  3.8937e-02  4.2358e-05  2.1470e-05  2.4324e+03  0:00:05   46

 Reversed flow on 26 faces (33.8% area) of pressure-outlet 7.
  4955  3.9624e-02  4.2585e-05  2.1810e-05  2.4326e+03  0:00:04   45

 Reversed flow on 26 faces (33.8% area) of pressure-outlet 7.
  4956  4.0392e-02  4.2817e-05  2.2131e-05  2.4328e+03  0:00:03   44

 Reversed flow on 26 faces (33.8% area) of pressure-outlet 7.
  4957  4.1198e-02  4.3078e-05  2.2513e-05  2.4330e+03  0:00:02   43

 Reversed flow on 26 faces (33.8% area) of pressure-outlet 7.
  4958  4.1997e-02  4.3283e-05  2.2919e-05  2.4333e+03  0:00:10   42

 Reversed flow on 26 faces (33.8% area) of pressure-outlet 7.
  4959  4.2861e-02  4.3506e-05  2.3351e-05  2.4337e+03  0:00:08   41

 Reversed flow on 26 faces (33.8% area) of pressure-outlet 7.
  4960  4.3897e-02  4.3675e-05  2.3814e-05  2.4341e+03  0:00:06   40

 Reversed flow on 26 faces (33.8% area) of pressure-outlet 7.
  4961  4.5254e-02  4.3898e-05  2.4343e-05  2.4346e+03  0:00:05   39

 Reversed flow on 26 faces (33.8% area) of pressure-outlet 7.

  iter  continuity  x-velocity  y-velocity     drag-co     time/iter
  4962  4.6760e-02  4.4217e-05  2.5001e-05  2.4351e+03  0:00:04   38

 Reversed flow on 26 faces (33.8% area) of pressure-outlet 7.
  4963  4.8116e-02  4.4617e-05  2.5647e-05  2.4357e+03  0:00:10   37

 Reversed flow on 26 faces (33.8% area) of pressure-outlet 7.
  4964  4.9379e-02  4.5051e-05  2.6359e-05  2.4364e+03  0:00:08   36

 Reversed flow on 26 faces (33.8% area) of pressure-outlet 7.
  4965  5.0906e-02  4.5634e-05  2.7095e-05  2.4371e+03  0:00:06   35

 Reversed flow on 26 faces (33.8% area) of pressure-outlet 7.
  4966  5.2774e-02  4.6140e-05  2.7608e-05  2.4379e+03  0:00:05   34

 Reversed flow on 26 faces (33.8% area) of pressure-outlet 7.
  4967  5.4317e-02  4.6492e-05  2.7851e-05  2.4387e+03  0:00:04   33

 Reversed flow on 26 faces (33.8% area) of pressure-outlet 7.
  4968  5.5232e-02  4.6802e-05  2.8072e-05  2.4396e+03  0:00:03   32

 Reversed flow on 26 faces (33.8% area) of pressure-outlet 7.
  4969  5.5489e-02  4.7187e-05  2.8077e-05  2.4405e+03  0:00:02   31

 Reversed flow on 26 faces (33.8% area) of pressure-outlet 7.
  4970  5.5520e-02  4.7362e-05  2.7958e-05  2.4415e+03  0:00:02   30

 Reversed flow on 26 faces (33.8% area) of pressure-outlet 7.
  4971  5.5236e-02  4.7586e-05  2.8010e-05  2.4425e+03  0:00:01   29

 Reversed flow on 26 faces (33.8% area) of pressure-outlet 7.
  4972  5.4553e-02  4.7656e-05  2.8056e-05  2.4435e+03  0:00:07   28

 Reversed flow on 26 faces (33.8% area) of pressure-outlet 7.

  iter  continuity  x-velocity  y-velocity     drag-co     time/iter
  4973  5.4066e-02  4.7744e-05  2.8009e-05  2.4444e+03  0:00:05   27

 Reversed flow on 26 faces (33.8% area) of pressure-outlet 7.
  4974  5.3393e-02  4.7884e-05  2.8028e-05  2.4453e+03  0:00:04   26

 Reversed flow on 26 faces (33.8% area) of pressure-outlet 7.
  4975  5.2944e-02  4.7964e-05  2.8007e-05  2.4462e+03  0:00:03   25

 Reversed flow on 26 faces (33.8% area) of pressure-outlet 7.
  4976  5.2454e-02  4.7933e-05  2.7953e-05  2.4471e+03  0:00:02   24

 Reversed flow on 26 faces (33.8% area) of pressure-outlet 7.
  4977  5.1992e-02  4.7821e-05  2.7835e-05  2.4479e+03  0:00:02   23

 Reversed flow on 26 faces (33.8% area) of pressure-outlet 7.
  4978  5.1552e-02  4.7670e-05  2.7682e-05  2.4488e+03  0:00:01   22

 Reversed flow on 26 faces (33.8% area) of pressure-outlet 7.
  4979  5.0950e-02  4.7552e-05  2.7569e-05  2.4496e+03  0:00:01   21

 Reversed flow on 26 faces (33.8% area) of pressure-outlet 7.
  4980  5.0300e-02  4.7391e-05  2.7429e-05  2.4503e+03  0:00:05   20

 Reversed flow on 26 faces (33.8% area) of pressure-outlet 7.
  4981  4.9666e-02  4.7440e-05  2.7224e-05  2.4511e+03  0:00:04   19

 Reversed flow on 26 faces (33.8% area) of pressure-outlet 7.
  4982  4.9125e-02  4.7465e-05  2.7111e-05  2.4519e+03  0:00:03   18

 Reversed flow on 26 faces (33.8% area) of pressure-outlet 7.
  4983  4.8793e-02  4.7503e-05  2.7109e-05  2.4527e+03  0:00:02   17

 Reversed flow on 26 faces (33.8% area) of pressure-outlet 7.

  iter  continuity  x-velocity  y-velocity     drag-co     time/iter
  4984  4.8565e-02  4.7442e-05  2.7102e-05  2.4536e+03  0:00:02   16

 Reversed flow on 26 faces (33.8% area) of pressure-outlet 7.
  4985  4.8372e-02  4.7522e-05  2.7161e-05  2.4544e+03  0:00:01   15

 Reversed flow on 26 faces (33.8% area) of pressure-outlet 7.
  4986  4.8408e-02  4.7857e-05  2.7309e-05  2.4554e+03  0:00:01   14

 Reversed flow on 26 faces (33.8% area) of pressure-outlet 7.
  4987  4.8618e-02  4.8302e-05  2.7493e-05  2.4563e+03  0:00:01   13

 Reversed flow on 26 faces (33.8% area) of pressure-outlet 7.
  4988  4.8836e-02  4.8773e-05  2.7760e-05  2.4574e+03  0:00:00   12

 Reversed flow on 26 faces (33.8% area) of pressure-outlet 7.
  4989  4.9137e-02  4.9421e-05  2.8143e-05  2.4585e+03  0:00:03   11

 Reversed flow on 26 faces (33.8% area) of pressure-outlet 7.
  4990  4.9500e-02  5.0110e-05  2.8621e-05  2.4597e+03  0:00:02   10

 Reversed flow on 26 faces (33.8% area) of pressure-outlet 7.
  4991  5.0184e-02  5.0859e-05  2.9169e-05  2.4609e+03  0:00:01    9

 Reversed flow on 26 faces (33.8% area) of pressure-outlet 7.
  4992  5.0787e-02  5.1671e-05  2.9756e-05  2.4622e+03  0:00:01    8

 Reversed flow on 26 faces (33.8% area) of pressure-outlet 7.
  4993  5.1640e-02  5.2422e-05  3.0315e-05  2.4635e+03  0:00:01    7

 Reversed flow on 26 faces (33.8% area) of pressure-outlet 7.
  4994  5.2387e-02  5.3092e-05  3.0840e-05  2.4649e+03  0:00:00    6

 Reversed flow on 26 faces (33.8% area) of pressure-outlet 7.

  iter  continuity  x-velocity  y-velocity     drag-co     time/iter
  4995  5.3301e-02  5.3739e-05  3.1309e-05  2.4663e+03  0:00:00    5

 Reversed flow on 26 faces (33.8% area) of pressure-outlet 7.
  4996  5.3987e-02  5.4217e-05  3.1769e-05  2.4677e+03  0:00:00    4

 Reversed flow on 26 faces (33.8% area) of pressure-outlet 7.
  4997  5.4559e-02  5.4811e-05  3.2189e-05  2.4692e+03  0:00:01    3

 Reversed flow on 26 faces (33.8% area) of pressure-outlet 7.
  4998  5.5215e-02  5.5332e-05  3.2557e-05  2.4707e+03  0:00:00    2

 Reversed flow on 26 faces (33.8% area) of pressure-outlet 7.
  4999  5.5850e-02  5.5754e-05  3.2882e-05  2.4722e+03  0:00:00    1

 Reversed flow on 26 faces (33.8% area) of pressure-outlet 7.
  5000  5.6218e-02  5.5972e-05  3.3154e-05  2.4739e+03  0:00:00    0
Registering ReportDefFiles, ("C:\Users\n11309270\OneDrive - Queensland University of Technology\Y3 S2\EGH423-CFD Assignment\Part 1\Cross Flow Mesh\CrossFlowMesh_files\dp0\FFF-2\Fluent\.\\drag-co-rfile.out")
Writing "| gzip -2cf > SolutionMonitor.gz"...
Writing temporary file C:\\Users\\N11309~1\\AppData\\Local\\Temp\\flntgz-80322 ...
Done.

Writing data to C:\\Users\\n11309270\\OneDrive - Queensland University of Technology\\Y3 S2\\EGH423-CFD Assignment\\Part 1\\Cross Flow Mesh\\CrossFlowMesh_files\\dp0\\FFF-2\\Fluent\\FFF-2.1.ip ...
	x-coord
	y-coord
	pressure
	x-velocity
	y-velocity
	hyb_init-0
	hyb_init-1
Done.

Performance Timer for 5000 iterations on 1 compute node
  Average wall-clock time per iteration:                0.032 sec
  Global reductions per iteration:                         50 ops
  Global reductions time per iteration:                 0.000 sec (0.0%)
  Message count per iteration:                              7 messages
  Data transfer per iteration:                          0.000 MB
  LE solves per iteration:                                  1 solves
  LE wall-clock time per iteration:                     0.021 sec (64.5%)
  LE global solves per iteration:                           0 solves
  LE global wall-clock time per iteration:              0.000 sec (0.0%)
  LE global matrix maximum size:                            0
  AMG cycles per iteration:                             2.941 cycles
  Relaxation sweeps per iteration:                        332 sweeps
  Relaxation exchanges per iteration:                       0 exchanges
  LE early protections (stall) per iteration:           0.000 times
  LE early protections (divergence) per iteration:      0.000 times
  Total SVARS touched:                                    382

  Total wall-clock time:                              162.173 sec

Transcript Stop Time:  13:16:10, 22 Oct 2024 E. Australia Standard Time 
Total Transcript Time: 9 Minute 52 Second.
